
=================
  PFLOTRAN v4.0
=================

 Extent of Gridded Domain
  X: 4.0000000000000000 - 1020.0000000000000
  Y: 4.0000000000000000 - 1020.0000000000000
  Z: -126.00000000000000 - -2.0000000000000000


=+=+=+=+=+=+=+=+=+=+=+=+=+=+=+=+=+=+=+=+=+=+=+=+=+=+=+=+=+=+=+=+=+=+=+=+=+=+=+=+

  Initial Condition

--------------------------------------------------------------------------------
          Flow Condition:   initial
     Transport Condition:   TC_Chem_Init
                  Region:   all
--------------------------------------------------------------------------------

  Flow Condition: initial
    Synchronize time with update: no
    Time units: yr
    Length units: m
      Datum:
        Dataset: Unnamed Ascii Dataset
          Type: dataset_ascii_type
          Transient: no
          Array Rank:  3

    Sub Condition: pressure
      Type: hydrostatic
      Gradient:
      Data:
        Dataset: Unnamed Ascii Dataset
          Type: dataset_ascii_type
          Transient: no
          Array Rank:  1

--------------------------------------------------------------------------------

  Transport Condition: TC_Chem_Init

  Constraint: Chem_Init

  species       molality
  Tracer        1.0000E-10


--------------------------------------------------------------------------------

=+=+=+=+=+=+=+=+=+=+=+=+=+=+=+=+=+=+=+=+=+=+=+=+=+=+=+=+=+=+=+=+=+=+=+=+=+=+=+=+

  Boundary Condition

--------------------------------------------------------------------------------
          Flow Condition:   init
     Transport Condition:   TC_Chem_Outlet
                  Region:   Outlet
--------------------------------------------------------------------------------

  Flow Condition: init
    Synchronize time with update: no
    Time units: yr
    Length units: m
      Datum:

    Sub Condition: pressure
      Type: dirichlet
      Gradient:
      Data:
        Dataset: Unnamed Ascii Dataset
          Type: dataset_ascii_type
          Transient: no
          Array Rank:  1

--------------------------------------------------------------------------------

  Transport Condition: TC_Chem_Outlet

  Constraint: Chem_Init

  species       molality
  Tracer        1.0000E-10


--------------------------------------------------------------------------------

=+=+=+=+=+=+=+=+=+=+=+=+=+=+=+=+=+=+=+=+=+=+=+=+=+=+=+=+=+=+=+=+=+=+=+=+=+=+=+=+

  Boundary Condition

--------------------------------------------------------------------------------
          Flow Condition:   inlet
     Transport Condition:   TC_Chem_Inlet
                  Region:   Inlet
--------------------------------------------------------------------------------

  Flow Condition: inlet
    Synchronize time with update: no
    Time units: yr
    Length units: m
      Datum:

    Sub Condition: pressure
      Type: dirichlet
      Gradient:
      Data:
        Dataset: Unnamed Ascii Dataset
          Type: dataset_ascii_type
          Transient: no
          Array Rank:  1

--------------------------------------------------------------------------------

  Transport Condition: TC_Chem_Inlet

  Constraint: Chem_Inlet

  species       molality
  Tracer        1.0000E+00


--------------------------------------------------------------------------------

 Requested processors and decomposition =   680, npx,y,z=   -1  -1  -1
 Actual decomposition: npx,y,z=   17  10   4


FLOW Time Stepper
acceleration: on
acceleration threshold: 5
number of ramp entries: 5
ramp entry #1: 2.0000
ramp entry #2: 2.0000
ramp entry #3: 2.0000
ramp entry #4: 2.0000
ramp entry #5: 2.0000
ramp entry #6: 1.8000
ramp entry #7: 1.6000
ramp entry #8: 1.4000
ramp entry #9: 1.2000
ramp entry #10: 1.0000
ramp entry #11: 1.0000
ramp entry #12: 1.0000
ramp entry #13: 1.0000
maximum number of steps: 999999
constant time steps threshold: 5
maximum number of cuts: 16
reduction factor: 5.000000E-01
maximum growth factor: 2.000000E+00

FLOW Newton Solver
atol: 1.000000E-50
rtol: 1.000000E-08
stol: 1.000000E-08
dtol: 1.000000E+04
maxnorm: 1.000000E+20
inftolres: -9.990000E+02
inftolupd: -9.990000E+02
inftolrelupd: -9.990000E+02
inftolsclres: -9.990000E+02
max iter: 50
min iter: 1
maxf: 10000
matrix type: baij
precond. matrix type: baij
inexact newton: off
print convergence: on
print detailed convergence: off
check infinity norm: on

FLOW Linear Solver
solver: bcgs
preconditioner: bjacobi
atol: 1.000000E-50
rtol: 1.000000E-05
dtol: 1.000000E+04
maximum iteration: 10000

TRAN Time Stepper
acceleration: on
acceleration threshold: 5
number of ramp entries: 5
ramp entry #1: 2.0000
ramp entry #2: 2.0000
ramp entry #3: 2.0000
ramp entry #4: 2.0000
ramp entry #5: 2.0000
ramp entry #6: 1.8000
ramp entry #7: 1.6000
ramp entry #8: 1.4000
ramp entry #9: 1.2000
ramp entry #10: 1.0000
ramp entry #11: 1.0000
ramp entry #12: 1.0000
ramp entry #13: 1.0000
maximum number of steps: 999999
constant time steps threshold: 5
maximum number of cuts: 16
reduction factor: 5.000000E-01
maximum growth factor: 2.000000E+00

TRAN Newton Solver
atol: 1.000000E-50
rtol: 1.000000E-07
stol: 1.000000E-08
dtol: 1.000000E+04
maxnorm: 1.000000E+20
inftolres: -9.990000E+02
inftolupd: -9.990000E+02
inftolrelupd: -9.990000E+02
inftolsclres: -9.990000E+02
max iter: 50
min iter: 1
maxf: 10000
matrix type: baij
precond. matrix type: baij
inexact newton: off
print convergence: on
print detailed convergence: off
check infinity norm: on

TRAN Linear Solver
solver: bcgs
preconditioner: bjacobi
atol: 1.000000E-50
rtol: 1.000000E-05
dtol: 1.000000E+04
maximum iteration: 10000

== RICHARDS FLOW ===============================================================
  0 2r: 1.22E-14 2x: 0.00E+00 2u: 0.00E+00 ir: 2.76E-16 iu: 0.00E+00 rsn:   0
  1 2r: 1.22E-14 2x: 1.76E+09 2u: 8.80E-08 ir: 2.76E-16 iu: 1.31E-10 rsn: stol
 Step  45091 Time=  3.76000E+03 Dt=  1.00000E+01 [y] snes_conv_reason:    4
  newton =   1 [   80672] linear =    80 [  22598547] cuts =  0 [****]
  --> max chng: dpmx=   2.3283E-10

== REACTIVE TRANSPORT ==========================================================
  0 2r: 2.92E-10 2x: 0.00E+00 2u: 0.00E+00 ir: 1.44E-11 iu: 0.00E+00 rsn:   0
  1 2r: 1.63E-14 2x: 9.20E+02 2u: 5.35E-02 ir: 2.03E-15 iu: 1.09E-03 rsn:   0
  2 2r: 2.86E-19 2x: 9.20E+02 2u: 3.50E-03 ir: 9.03E-20 iu: 5.83E-04 rsn: rtol
 Step  86186 Time=  3.75041E+03 Dt=  4.10959E-01 [y] snes_conv_reason:    3
  newton =   2 [  185218] linear =  6553 [ 383456964] cuts =  0 [9995]
  --> max chng: dcmx=   1.0427E-04  dc/dt=   8.0451E-12 [mol/s]

== REACTIVE TRANSPORT ==========================================================
  0 2r: 2.92E-10 2x: 0.00E+00 2u: 0.00E+00 ir: 1.44E-11 iu: 0.00E+00 rsn:   0
  1 2r: 1.67E-14 2x: 9.20E+02 2u: 5.35E-02 ir: 2.17E-15 iu: 1.09E-03 rsn:   0
  2 2r: 6.73E-18 2x: 9.20E+02 2u: 3.52E-03 ir: 3.02E-18 iu: 5.84E-04 rsn: rtol
 Step  86187 Time=  3.75082E+03 Dt=  4.10959E-01 [y] snes_conv_reason:    3
  newton =   2 [  185220] linear =  7179 [ 383464143] cuts =  0 [9995]
  --> max chng: dcmx=   1.0425E-04  dc/dt=   8.0440E-12 [mol/s]

== REACTIVE TRANSPORT ==========================================================
  0 2r: 2.92E-10 2x: 0.00E+00 2u: 0.00E+00 ir: 1.44E-11 iu: 0.00E+00 rsn:   0
  1 2r: 4.72E-14 2x: 9.20E+02 2u: 1.07E-01 ir: 1.49E-14 iu: 2.19E-03 rsn:   0
  0 2r: 2.92E-10 2x: 0.00E+00 2u: 0.00E+00 ir: 1.44E-11 iu: 0.00E+00 rsn:   0
  1 2r: 3.11E-14 2x: 9.20E+02 2u: 5.35E-02 ir: 1.19E-14 iu: 1.09E-03 rsn:   0
  2 2r: 1.97E-18 2x: 9.20E+02 2u: 3.36E-03 ir: 1.02E-18 iu: 5.73E-04 rsn: rtol
 Step  86188 Time=  3.75123E+03 Dt=  4.10959E-01 [y] snes_conv_reason:    3
  newton =   3 [  185223] linear = 16190 [ 383480333] cuts =  1 [9996]
  --> max chng: dcmx=   1.0424E-04  dc/dt=   8.0428E-12 [mol/s]

== REACTIVE TRANSPORT ==========================================================
  0 2r: 2.92E-10 2x: 0.00E+00 2u: 0.00E+00 ir: 1.44E-11 iu: 0.00E+00 rsn:   0
  1 2r: 1.81E-14 2x: 9.20E+02 2u: 5.35E-02 ir: 4.14E-15 iu: 1.09E-03 rsn:   0
  2 2r: 2.52E-19 2x: 9.20E+02 2u: 3.33E-03 ir: 9.70E-20 iu: 5.70E-04 rsn: rtol
 Step  86189 Time=  3.75164E+03 Dt=  4.10959E-01 [y] snes_conv_reason:    3
  newton =   2 [  185225] linear =  4786 [ 383485119] cuts =  0 [9996]
  --> max chng: dcmx=   1.0422E-04  dc/dt=   8.0417E-12 [mol/s]

== REACTIVE TRANSPORT ==========================================================
  0 2r: 2.92E-10 2x: 0.00E+00 2u: 0.00E+00 ir: 1.44E-11 iu: 0.00E+00 rsn:   0
  1 2r: 1.61E-14 2x: 9.20E+02 2u: 5.34E-02 ir: 1.75E-15 iu: 1.09E-03 rsn:   0
  2 2r: 7.22E-19 2x: 9.20E+02 2u: 3.60E-03 ir: 3.43E-19 iu: 5.89E-04 rsn: rtol
 Step  86190 Time=  3.75205E+03 Dt=  4.10959E-01 [y] snes_conv_reason:    3
  newton =   2 [  185227] linear =  4639 [ 383489758] cuts =  0 [9996]
  --> max chng: dcmx=   1.0420E-04  dc/dt=   8.0405E-12 [mol/s]

== REACTIVE TRANSPORT ==========================================================
  0 2r: 2.92E-10 2x: 0.00E+00 2u: 0.00E+00 ir: 1.44E-11 iu: 0.00E+00 rsn:   0
  1 2r: 5.25E-14 2x: 9.20E+02 2u: 5.35E-02 ir: 2.10E-14 iu: 1.09E-03 rsn:   0
  2 2r: 7.62E-19 2x: 9.20E+02 2u: 3.22E-03 ir: 2.88E-19 iu: 5.60E-04 rsn: rtol
 Step  86191 Time=  3.75247E+03 Dt=  4.10959E-01 [y] snes_conv_reason:    3
  newton =   2 [  185229] linear =  5092 [ 383494850] cuts =  0 [9996]
  --> max chng: dcmx=   1.0419E-04  dc/dt=   8.0393E-12 [mol/s]

== REACTIVE TRANSPORT ==========================================================
  0 2r: 2.92E-10 2x: 0.00E+00 2u: 0.00E+00 ir: 1.44E-11 iu: 0.00E+00 rsn:   0
  1 2r: 2.01E-14 2x: 9.20E+02 2u: 5.34E-02 ir: 4.44E-15 iu: 1.09E-03 rsn:   0
  2 2r: 5.15E-19 2x: 9.20E+02 2u: 3.62E-03 ir: 2.13E-19 iu: 5.91E-04 rsn: rtol
 Step  86192 Time=  3.75288E+03 Dt=  4.10959E-01 [y] snes_conv_reason:    3
  newton =   2 [  185231] linear =  4964 [ 383499814] cuts =  0 [9996]
  --> max chng: dcmx=   1.0417E-04  dc/dt=   8.0382E-12 [mol/s]

== REACTIVE TRANSPORT ==========================================================
  0 2r: 2.92E-10 2x: 0.00E+00 2u: 0.00E+00 ir: 1.44E-11 iu: 0.00E+00 rsn:   0
  1 2r: 1.60E-14 2x: 9.20E+02 2u: 5.34E-02 ir: 1.22E-15 iu: 1.09E-03 rsn:   0
  2 2r: 2.38E-19 2x: 9.20E+02 2u: 3.48E-03 ir: 8.30E-20 iu: 5.81E-04 rsn: rtol
 Step  86193 Time=  3.75329E+03 Dt=  4.10959E-01 [y] snes_conv_reason:    3
  newton =   2 [  185233] linear =  5167 [ 383504981] cuts =  0 [9996]
  --> max chng: dcmx=   1.0416E-04  dc/dt=   8.0370E-12 [mol/s]

== REACTIVE TRANSPORT ==========================================================
  0 2r: 2.92E-10 2x: 0.00E+00 2u: 0.00E+00 ir: 1.44E-11 iu: 0.00E+00 rsn:   0
  1 2r: 3.20E-14 2x: 9.20E+02 2u: 1.07E-01 ir: 2.37E-15 iu: 2.19E-03 rsn:   0
  2 2r: 3.00E-17 2x: 9.20E+02 2u: 7.70E-03 ir: 1.11E-17 iu: 1.20E-03 rsn:   0
  0 2r: 2.92E-10 2x: 0.00E+00 2u: 0.00E+00 ir: 1.44E-11 iu: 0.00E+00 rsn:   0
  1 2r: 1.60E-14 2x: 9.20E+02 2u: 5.34E-02 ir: 1.53E-15 iu: 1.09E-03 rsn:   0
  2 2r: 1.17E-18 2x: 9.20E+02 2u: 3.67E-03 ir: 5.95E-19 iu: 5.94E-04 rsn: rtol
 Step  86194 Time=  3.75370E+03 Dt=  4.10959E-01 [y] snes_conv_reason:    3
  newton =   4 [  185237] linear = 25521 [ 383530502] cuts =  1 [9997]
  --> max chng: dcmx=   1.0414E-04  dc/dt=   8.0359E-12 [mol/s]

== REACTIVE TRANSPORT ==========================================================
  0 2r: 2.92E-10 2x: 0.00E+00 2u: 0.00E+00 ir: 1.44E-11 iu: 0.00E+00 rsn:   0
  1 2r: 1.85E-14 2x: 9.20E+02 2u: 5.34E-02 ir: 3.31E-15 iu: 1.09E-03 rsn:   0
  2 2r: 2.29E-18 2x: 9.20E+02 2u: 3.65E-03 ir: 1.12E-18 iu: 5.92E-04 rsn: rtol
 Step  86195 Time=  3.75411E+03 Dt=  4.10959E-01 [y] snes_conv_reason:    3
  newton =   2 [  185239] linear =  5644 [ 383536146] cuts =  0 [9997]
  --> max chng: dcmx=   1.0413E-04  dc/dt=   8.0347E-12 [mol/s]

== REACTIVE TRANSPORT ==========================================================
  0 2r: 2.92E-10 2x: 0.00E+00 2u: 0.00E+00 ir: 1.44E-11 iu: 0.00E+00 rsn:   0
  1 2r: 1.69E-14 2x: 9.20E+02 2u: 5.34E-02 ir: 2.95E-15 iu: 1.09E-03 rsn:   0
  2 2r: 3.31E-19 2x: 9.20E+02 2u: 3.56E-03 ir: 1.35E-19 iu: 5.87E-04 rsn: rtol
 Step  86196 Time=  3.75452E+03 Dt=  4.10959E-01 [y] snes_conv_reason:    3
  newton =   2 [  185241] linear =  5879 [ 383542025] cuts =  0 [9997]
  --> max chng: dcmx=   1.0411E-04  dc/dt=   8.0335E-12 [mol/s]

== REACTIVE TRANSPORT ==========================================================
  0 2r: 2.92E-10 2x: 0.00E+00 2u: 0.00E+00 ir: 1.44E-11 iu: 0.00E+00 rsn:   0
  1 2r: 1.90E-14 2x: 9.20E+02 2u: 5.34E-02 ir: 4.63E-15 iu: 1.09E-03 rsn:   0
  2 2r: 2.63E-19 2x: 9.20E+02 2u: 3.61E-03 ir: 9.40E-20 iu: 5.89E-04 rsn: rtol
 Step  86197 Time=  3.75493E+03 Dt=  4.10959E-01 [y] snes_conv_reason:    3
  newton =   2 [  185243] linear =  6459 [ 383548484] cuts =  0 [9997]
  --> max chng: dcmx=   1.0410E-04  dc/dt=   8.0324E-12 [mol/s]

== REACTIVE TRANSPORT ==========================================================
  0 2r: 2.92E-10 2x: 0.00E+00 2u: 0.00E+00 ir: 1.44E-11 iu: 0.00E+00 rsn:   0
  1 2r: 2.99E-14 2x: 9.20E+02 2u: 5.34E-02 ir: 9.43E-15 iu: 1.09E-03 rsn:   0
  2 2r: 4.96E-19 2x: 9.20E+02 2u: 3.65E-03 ir: 2.04E-19 iu: 5.92E-04 rsn: rtol
 Step  86198 Time=  3.75534E+03 Dt=  4.10959E-01 [y] snes_conv_reason:    3
  newton =   2 [  185245] linear =  8308 [ 383556792] cuts =  0 [9997]
  --> max chng: dcmx=   1.0408E-04  dc/dt=   8.0312E-12 [mol/s]

== REACTIVE TRANSPORT ==========================================================
  0 2r: 2.92E-10 2x: 0.00E+00 2u: 0.00E+00 ir: 1.44E-11 iu: 0.00E+00 rsn:   0
  1 2r: 2.55E-14 2x: 9.20E+02 2u: 5.34E-02 ir: 9.18E-15 iu: 1.09E-03 rsn:   0
  2 2r: 1.41E-17 2x: 9.20E+02 2u: 3.63E-03 ir: 6.04E-18 iu: 5.91E-04 rsn: rtol
 Step  86199 Time=  3.75575E+03 Dt=  4.10959E-01 [y] snes_conv_reason:    3
  newton =   2 [  185247] linear =  5920 [ 383562712] cuts =  0 [9997]
  --> max chng: dcmx=   1.0407E-04  dc/dt=   8.0300E-12 [mol/s]

== REACTIVE TRANSPORT ==========================================================
  0 2r: 2.92E-10 2x: 0.00E+00 2u: 0.00E+00 ir: 1.44E-11 iu: 0.00E+00 rsn:   0
  1 2r: 3.19E-14 2x: 9.20E+02 2u: 1.07E-01 ir: 2.31E-15 iu: 2.19E-03 rsn:   0
  0 2r: 2.92E-10 2x: 0.00E+00 2u: 0.00E+00 ir: 1.44E-11 iu: 0.00E+00 rsn:   0
  1 2r: 1.74E-14 2x: 9.20E+02 2u: 5.34E-02 ir: 3.69E-15 iu: 1.09E-03 rsn:   0
  2 2r: 3.24E-19 2x: 9.20E+02 2u: 3.66E-03 ir: 1.41E-19 iu: 5.92E-04 rsn: rtol
 Step  86200 Time=  3.75616E+03 Dt=  4.10959E-01 [y] snes_conv_reason:    3
  newton =   3 [  185250] linear = 15107 [ 383577819] cuts =  1 [9998]
  --> max chng: dcmx=   1.0405E-04  dc/dt=   8.0289E-12 [mol/s]

== REACTIVE TRANSPORT ==========================================================
  0 2r: 2.92E-10 2x: 0.00E+00 2u: 0.00E+00 ir: 1.44E-11 iu: 0.00E+00 rsn:   0
  1 2r: 1.63E-14 2x: 9.20E+02 2u: 5.34E-02 ir: 2.06E-15 iu: 1.09E-03 rsn:   0
  2 2r: 2.69E-19 2x: 9.20E+02 2u: 3.58E-03 ir: 9.35E-20 iu: 5.87E-04 rsn: rtol
 Step  86201 Time=  3.75658E+03 Dt=  4.10959E-01 [y] snes_conv_reason:    3
  newton =   2 [  185252] linear =  5979 [ 383583798] cuts =  0 [9998]
  --> max chng: dcmx=   1.0404E-04  dc/dt=   8.0277E-12 [mol/s]

== REACTIVE TRANSPORT ==========================================================
  0 2r: 2.92E-10 2x: 0.00E+00 2u: 0.00E+00 ir: 1.44E-11 iu: 0.00E+00 rsn:   0
  1 2r: 1.68E-14 2x: 9.19E+02 2u: 5.33E-02 ir: 2.56E-15 iu: 1.09E-03 rsn:   0
  2 2r: 2.12E-19 2x: 9.19E+02 2u: 3.66E-03 ir: 8.52E-20 iu: 5.92E-04 rsn: rtol
 Step  86202 Time=  3.75699E+03 Dt=  4.10959E-01 [y] snes_conv_reason:    3
  newton =   2 [  185254] linear =  5504 [ 383589302] cuts =  0 [9998]
  --> max chng: dcmx=   1.0402E-04  dc/dt=   8.0265E-12 [mol/s]

== REACTIVE TRANSPORT ==========================================================
  0 2r: 2.92E-10 2x: 0.00E+00 2u: 0.00E+00 ir: 1.44E-11 iu: 0.00E+00 rsn:   0
  1 2r: 1.60E-14 2x: 9.19E+02 2u: 5.34E-02 ir: 1.21E-15 iu: 1.09E-03 rsn:   0
  2 2r: 2.71E-19 2x: 9.19E+02 2u: 3.42E-03 ir: 1.25E-19 iu: 5.76E-04 rsn: rtol
 Step  86203 Time=  3.75740E+03 Dt=  4.10959E-01 [y] snes_conv_reason:    3
  newton =   2 [  185256] linear =  6924 [ 383596226] cuts =  0 [9998]
  --> max chng: dcmx=   1.0401E-04  dc/dt=   8.0254E-12 [mol/s]

== REACTIVE TRANSPORT ==========================================================
  0 2r: 2.92E-10 2x: 0.00E+00 2u: 0.00E+00 ir: 1.44E-11 iu: 0.00E+00 rsn:   0
  1 2r: 2.03E-14 2x: 9.19E+02 2u: 5.33E-02 ir: 4.25E-15 iu: 1.09E-03 rsn:   0
  2 2r: 2.31E-19 2x: 9.19E+02 2u: 3.63E-03 ir: 9.20E-20 iu: 5.91E-04 rsn: rtol
 Step  86204 Time=  3.75781E+03 Dt=  4.10959E-01 [y] snes_conv_reason:    3
  newton =   2 [  185258] linear =  5275 [ 383601501] cuts =  0 [9998]
  --> max chng: dcmx=   1.0399E-04  dc/dt=   8.0242E-12 [mol/s]

== REACTIVE TRANSPORT ==========================================================
  0 2r: 2.91E-10 2x: 0.00E+00 2u: 0.00E+00 ir: 1.44E-11 iu: 0.00E+00 rsn:   0
  1 2r: 5.56E-14 2x: 9.19E+02 2u: 5.33E-02 ir: 1.73E-14 iu: 1.09E-03 rsn:   0
  2 2r: 2.71E-19 2x: 9.19E+02 2u: 3.61E-03 ir: 1.11E-19 iu: 5.89E-04 rsn: rtol
 Step  86205 Time=  3.75822E+03 Dt=  4.10959E-01 [y] snes_conv_reason:    3
  newton =   2 [  185260] linear =  5203 [ 383606704] cuts =  0 [9998]
  --> max chng: dcmx=   1.0398E-04  dc/dt=   8.0230E-12 [mol/s]

== REACTIVE TRANSPORT ==========================================================
  0 2r: 2.91E-10 2x: 0.00E+00 2u: 0.00E+00 ir: 1.44E-11 iu: 0.00E+00 rsn:   0
  1 2r: 3.16E-14 2x: 9.19E+02 2u: 1.07E-01 ir: 3.07E-15 iu: 2.19E-03 rsn:   0
  0 2r: 2.91E-10 2x: 0.00E+00 2u: 0.00E+00 ir: 1.44E-11 iu: 0.00E+00 rsn:   0
  1 2r: 3.15E-14 2x: 9.19E+02 2u: 5.33E-02 ir: 1.28E-14 iu: 1.09E-03 rsn:   0
  2 2r: 1.83E-17 2x: 9.19E+02 2u: 3.46E-03 ir: 7.22E-18 iu: 5.80E-04 rsn: rtol
 Step  86206 Time=  3.75863E+03 Dt=  4.10959E-01 [y] snes_conv_reason:    3
  newton =   3 [  185263] linear = 16553 [ 383623257] cuts =  1 [9999]
  --> max chng: dcmx=   1.0396E-04  dc/dt=   8.0219E-12 [mol/s]

== REACTIVE TRANSPORT ==========================================================
  0 2r: 2.91E-10 2x: 0.00E+00 2u: 0.00E+00 ir: 1.44E-11 iu: 0.00E+00 rsn:   0
  1 2r: 1.59E-14 2x: 9.19E+02 2u: 5.33E-02 ir: 1.42E-15 iu: 1.09E-03 rsn:   0
  2 2r: 8.06E-19 2x: 9.19E+02 2u: 3.49E-03 ir: 3.83E-19 iu: 5.82E-04 rsn: rtol
 Step  86207 Time=  3.75904E+03 Dt=  4.10959E-01 [y] snes_conv_reason:    3
  newton =   2 [  185265] linear =  5846 [ 383629103] cuts =  0 [9999]
  --> max chng: dcmx=   1.0395E-04  dc/dt=   8.0207E-12 [mol/s]

== REACTIVE TRANSPORT ==========================================================
  0 2r: 2.91E-10 2x: 0.00E+00 2u: 0.00E+00 ir: 1.44E-11 iu: 0.00E+00 rsn:   0
  1 2r: 1.63E-14 2x: 9.19E+02 2u: 5.33E-02 ir: 1.82E-15 iu: 1.09E-03 rsn:   0
  2 2r: 3.46E-18 2x: 9.19E+02 2u: 3.56E-03 ir: 1.48E-18 iu: 5.87E-04 rsn: rtol
 Step  86208 Time=  3.75945E+03 Dt=  4.10959E-01 [y] snes_conv_reason:    3
  newton =   2 [  185267] linear =  4291 [ 383633394] cuts =  0 [9999]
  --> max chng: dcmx=   1.0393E-04  dc/dt=   8.0195E-12 [mol/s]

== REACTIVE TRANSPORT ==========================================================
  0 2r: 2.91E-10 2x: 0.00E+00 2u: 0.00E+00 ir: 1.44E-11 iu: 0.00E+00 rsn:   0
  1 2r: 1.67E-14 2x: 9.19E+02 2u: 5.33E-02 ir: 2.30E-15 iu: 1.09E-03 rsn:   0
  2 2r: 1.23E-18 2x: 9.19E+02 2u: 3.53E-03 ir: 5.13E-19 iu: 5.84E-04 rsn: rtol
 Step  86209 Time=  3.75986E+03 Dt=  4.10959E-01 [y] snes_conv_reason:    3
  newton =   2 [  185269] linear =  7682 [ 383641076] cuts =  0 [9999]
  --> max chng: dcmx=   1.0392E-04  dc/dt=   8.0184E-12 [mol/s]

== REACTIVE TRANSPORT ==========================================================
  0 2r: 2.91E-10 2x: 0.00E+00 2u: 0.00E+00 ir: 1.44E-11 iu: 0.00E+00 rsn:   0
  1 2r: 6.23E-15 2x: 9.19E+02 2u: 1.78E-02 ir: 9.83E-16 iu: 3.63E-04 rsn:   0
  2 2r: 1.34E-19 2x: 9.19E+02 2u: 9.25E-04 ir: 5.40E-20 iu: 1.70E-04 rsn: rtol
 Step  86210 Time=  3.76000E+03 Dt=  1.36986E-01 [y] snes_conv_reason:    3
  newton =   2 [  185271] linear =  2120 [ 383643196] cuts =  0 [9999]
  --> max chng: dcmx=   3.4638E-05  dc/dt=   8.0180E-12 [mol/s]

== RICHARDS FLOW ===============================================================
  0 2r: 1.22E-14 2x: 0.00E+00 2u: 0.00E+00 ir: 2.76E-16 iu: 0.00E+00 rsn:   0
  1 2r: 1.22E-14 2x: 1.76E+09 2u: 8.80E-08 ir: 2.76E-16 iu: 1.30E-10 rsn: stol
 Step  45092 Time=  3.77000E+03 Dt=  1.00000E+01 [y] snes_conv_reason:    4
  newton =   1 [   80673] linear =    79 [  22598626] cuts =  0 [****]
  --> max chng: dpmx=   2.3283E-10

== REACTIVE TRANSPORT ==========================================================
  0 2r: 2.91E-10 2x: 0.00E+00 2u: 0.00E+00 ir: 1.44E-11 iu: 0.00E+00 rsn:   0
  1 2r: 1.60E-14 2x: 9.19E+02 2u: 5.33E-02 ir: 1.58E-15 iu: 1.09E-03 rsn:   0
  2 2r: 2.25E-17 2x: 9.19E+02 2u: 3.65E-03 ir: 9.17E-18 iu: 5.92E-04 rsn: rtol
 Step  86211 Time=  3.76041E+03 Dt=  4.10959E-01 [y] snes_conv_reason:    3
  newton =   2 [  185273] linear =  6156 [ 383649352] cuts =  0 [9999]
  --> max chng: dcmx=   8.0890E-04  dc/dt=   6.2415E-11 [mol/s]

== REACTIVE TRANSPORT ==========================================================
  0 2r: 2.91E-10 2x: 0.00E+00 2u: 0.00E+00 ir: 1.44E-11 iu: 0.00E+00 rsn:   0
  1 2r: 3.25E-14 2x: 9.19E+02 2u: 1.07E-01 ir: 3.90E-15 iu: 2.18E-03 rsn:   0
  0 2r: 2.91E-10 2x: 0.00E+00 2u: 0.00E+00 ir: 1.44E-11 iu: 0.00E+00 rsn:   0
  1 2r: 1.66E-14 2x: 9.19E+02 2u: 5.33E-02 ir: 2.85E-15 iu: 1.09E-03 rsn:   0
  2 2r: 1.06E-18 2x: 9.19E+02 2u: 3.57E-03 ir: 4.51E-19 iu: 5.86E-04 rsn: rtol
 Step  86212 Time=  3.76082E+03 Dt=  4.10959E-01 [y] snes_conv_reason:    3
  newton =   3 [  185276] linear = 16492 [ 383665844] cuts =  1 [****]
  --> max chng: dcmx=   7.0239E-04  dc/dt=   5.4197E-11 [mol/s]

== REACTIVE TRANSPORT ==========================================================
  0 2r: 2.91E-10 2x: 0.00E+00 2u: 0.00E+00 ir: 1.44E-11 iu: 0.00E+00 rsn:   0
  1 2r: 2.84E-14 2x: 9.19E+02 2u: 5.33E-02 ir: 1.00E-14 iu: 1.09E-03 rsn:   0
  2 2r: 1.20E-18 2x: 9.19E+02 2u: 3.45E-03 ir: 5.42E-19 iu: 5.78E-04 rsn: rtol
 Step  86213 Time=  3.76123E+03 Dt=  4.10959E-01 [y] snes_conv_reason:    3
  newton =   2 [  185278] linear =  6942 [ 383672786] cuts =  0 [****]
  --> max chng: dcmx=   6.1001E-04  dc/dt=   4.7069E-11 [mol/s]

== REACTIVE TRANSPORT ==========================================================
  0 2r: 2.91E-10 2x: 0.00E+00 2u: 0.00E+00 ir: 1.44E-11 iu: 0.00E+00 rsn:   0
  1 2r: 1.93E-14 2x: 9.19E+02 2u: 5.33E-02 ir: 3.61E-15 iu: 1.09E-03 rsn:   0
  2 2r: 6.14E-19 2x: 9.19E+02 2u: 3.61E-03 ir: 2.69E-19 iu: 5.89E-04 rsn: rtol
 Step  86214 Time=  3.76164E+03 Dt=  4.10959E-01 [y] snes_conv_reason:    3
  newton =   2 [  185280] linear =  4534 [ 383677320] cuts =  0 [****]
  --> max chng: dcmx=   5.2987E-04  dc/dt=   4.0885E-11 [mol/s]

== REACTIVE TRANSPORT ==========================================================
  0 2r: 2.91E-10 2x: 0.00E+00 2u: 0.00E+00 ir: 1.44E-11 iu: 0.00E+00 rsn:   0
  1 2r: 1.66E-14 2x: 9.19E+02 2u: 5.32E-02 ir: 2.02E-15 iu: 1.09E-03 rsn:   0
  2 2r: 4.67E-19 2x: 9.19E+02 2u: 3.62E-03 ir: 2.02E-19 iu: 5.89E-04 rsn: rtol
 Step  86215 Time=  3.76205E+03 Dt=  4.10959E-01 [y] snes_conv_reason:    3
  newton =   2 [  185282] linear =  5684 [ 383683004] cuts =  0 [****]
  --> max chng: dcmx=   4.6031E-04  dc/dt=   3.5518E-11 [mol/s]

== REACTIVE TRANSPORT ==========================================================
  0 2r: 2.91E-10 2x: 0.00E+00 2u: 0.00E+00 ir: 1.44E-11 iu: 0.00E+00 rsn:   0
  1 2r: 1.88E-14 2x: 9.19E+02 2u: 5.32E-02 ir: 4.30E-15 iu: 1.09E-03 rsn:   0
  2 2r: 1.48E-18 2x: 9.19E+02 2u: 3.65E-03 ir: 7.76E-19 iu: 5.91E-04 rsn: rtol
 Step  86216 Time=  3.76247E+03 Dt=  4.10959E-01 [y] snes_conv_reason:    3
  newton =   2 [  185284] linear =  5717 [ 383688721] cuts =  0 [****]
  --> max chng: dcmx=   3.9993E-04  dc/dt=   3.0859E-11 [mol/s]

== REACTIVE TRANSPORT ==========================================================
  0 2r: 2.91E-10 2x: 0.00E+00 2u: 0.00E+00 ir: 1.44E-11 iu: 0.00E+00 rsn:   0
  1 2r: 1.62E-14 2x: 9.19E+02 2u: 5.33E-02 ir: 1.53E-15 iu: 1.09E-03 rsn:   0
  2 2r: 1.46E-18 2x: 9.19E+02 2u: 3.42E-03 ir: 5.21E-19 iu: 5.76E-04 rsn: rtol
 Step  86217 Time=  3.76288E+03 Dt=  4.10959E-01 [y] snes_conv_reason:    3
  newton =   2 [  185286] linear =  6320 [ 383695041] cuts =  0 [****]
  --> max chng: dcmx=   3.4750E-04  dc/dt=   2.6814E-11 [mol/s]

== REACTIVE TRANSPORT ==========================================================
  0 2r: 2.91E-10 2x: 0.00E+00 2u: 0.00E+00 ir: 1.44E-11 iu: 0.00E+00 rsn:   0
  1 2r: 3.18E-14 2x: 9.19E+02 2u: 1.06E-01 ir: 2.30E-15 iu: 2.18E-03 rsn:   0
  0 2r: 2.91E-10 2x: 0.00E+00 2u: 0.00E+00 ir: 1.44E-11 iu: 0.00E+00 rsn:   0
  1 2r: 1.69E-14 2x: 9.19E+02 2u: 5.32E-02 ir: 2.73E-15 iu: 1.09E-03 rsn:   0
  2 2r: 1.81E-18 2x: 9.19E+02 2u: 3.66E-03 ir: 8.77E-19 iu: 5.92E-04 rsn: rtol
 Step  86218 Time=  3.76329E+03 Dt=  4.10959E-01 [y] snes_conv_reason:    3
  newton =   3 [  185289] linear = 16125 [ 383711166] cuts =  1 [****]
  --> max chng: dcmx=   3.0198E-04  dc/dt=   2.3301E-11 [mol/s]

== REACTIVE TRANSPORT ==========================================================
  0 2r: 2.91E-10 2x: 0.00E+00 2u: 0.00E+00 ir: 1.44E-11 iu: 0.00E+00 rsn:   0
  1 2r: 1.95E-14 2x: 9.19E+02 2u: 5.32E-02 ir: 3.73E-15 iu: 1.09E-03 rsn:   0
  2 2r: 1.67E-18 2x: 9.19E+02 2u: 3.54E-03 ir: 7.86E-19 iu: 5.84E-04 rsn: rtol
 Step  86219 Time=  3.76370E+03 Dt=  4.10959E-01 [y] snes_conv_reason:    3
  newton =   2 [  185291] linear =  6944 [ 383718110] cuts =  0 [****]
  --> max chng: dcmx=   2.6244E-04  dc/dt=   2.0250E-11 [mol/s]

== REACTIVE TRANSPORT ==========================================================
  0 2r: 2.91E-10 2x: 0.00E+00 2u: 0.00E+00 ir: 1.44E-11 iu: 0.00E+00 rsn:   0
  1 2r: 1.82E-14 2x: 9.19E+02 2u: 5.32E-02 ir: 3.36E-15 iu: 1.09E-03 rsn:   0
  2 2r: 2.56E-19 2x: 9.19E+02 2u: 3.52E-03 ir: 1.16E-19 iu: 5.83E-04 rsn: rtol
 Step  86220 Time=  3.76411E+03 Dt=  4.10959E-01 [y] snes_conv_reason:    3
  newton =   2 [  185293] linear =  5612 [ 383723722] cuts =  0 [****]
  --> max chng: dcmx=   2.2809E-04  dc/dt=   1.7600E-11 [mol/s]

== REACTIVE TRANSPORT ==========================================================
  0 2r: 2.91E-10 2x: 0.00E+00 2u: 0.00E+00 ir: 1.44E-11 iu: 0.00E+00 rsn:   0
  1 2r: 1.90E-14 2x: 9.19E+02 2u: 5.32E-02 ir: 4.49E-15 iu: 1.09E-03 rsn:   0
  2 2r: 5.06E-19 2x: 9.19E+02 2u: 3.63E-03 ir: 2.05E-19 iu: 5.90E-04 rsn: rtol
 Step  86221 Time=  3.76452E+03 Dt=  4.10959E-01 [y] snes_conv_reason:    3
  newton =   2 [  185295] linear =  4871 [ 383728593] cuts =  0 [****]
  --> max chng: dcmx=   1.9826E-04  dc/dt=   1.5298E-11 [mol/s]

== REACTIVE TRANSPORT ==========================================================
  0 2r: 2.91E-10 2x: 0.00E+00 2u: 0.00E+00 ir: 1.44E-11 iu: 0.00E+00 rsn:   0
  1 2r: 1.68E-14 2x: 9.19E+02 2u: 5.32E-02 ir: 2.91E-15 iu: 1.09E-03 rsn:   0
  2 2r: 1.68E-19 2x: 9.19E+02 2u: 3.46E-03 ir: 5.93E-20 iu: 5.79E-04 rsn: rtol
 Step  86222 Time=  3.76493E+03 Dt=  4.10959E-01 [y] snes_conv_reason:    3
  newton =   2 [  185297] linear =  5357 [ 383733950] cuts =  0 [****]
  --> max chng: dcmx=   1.7235E-04  dc/dt=   1.3298E-11 [mol/s]

== REACTIVE TRANSPORT ==========================================================
  0 2r: 2.91E-10 2x: 0.00E+00 2u: 0.00E+00 ir: 1.44E-11 iu: 0.00E+00 rsn:   0
  1 2r: 1.62E-14 2x: 9.19E+02 2u: 5.32E-02 ir: 2.26E-15 iu: 1.09E-03 rsn:   0
  2 2r: 3.60E-19 2x: 9.19E+02 2u: 3.59E-03 ir: 1.44E-19 iu: 5.87E-04 rsn: rtol
 Step  86223 Time=  3.76534E+03 Dt=  4.10959E-01 [y] snes_conv_reason:    3
  newton =   2 [  185299] linear =  4997 [ 383738947] cuts =  0 [****]
  --> max chng: dcmx=   1.4984E-04  dc/dt=   1.1561E-11 [mol/s]

== REACTIVE TRANSPORT ==========================================================
  0 2r: 2.91E-10 2x: 0.00E+00 2u: 0.00E+00 ir: 1.44E-11 iu: 0.00E+00 rsn:   0
  1 2r: 3.96E-14 2x: 9.19E+02 2u: 1.06E-01 ir: 1.18E-14 iu: 2.18E-03 rsn:   0
  0 2r: 2.91E-10 2x: 0.00E+00 2u: 0.00E+00 ir: 1.44E-11 iu: 0.00E+00 rsn:   0
  1 2r: 1.64E-14 2x: 9.19E+02 2u: 5.32E-02 ir: 1.83E-15 iu: 1.09E-03 rsn:   0
  2 2r: 5.86E-18 2x: 9.19E+02 2u: 3.48E-03 ir: 2.89E-18 iu: 5.80E-04 rsn: rtol
 Step  86224 Time=  3.76575E+03 Dt=  4.10959E-01 [y] snes_conv_reason:    3
  newton =   3 [  185302] linear = 15502 [ 383754449] cuts =  1 [****]
  --> max chng: dcmx=   1.3028E-04  dc/dt=   1.0052E-11 [mol/s]

== REACTIVE TRANSPORT ==========================================================
  0 2r: 2.91E-10 2x: 0.00E+00 2u: 0.00E+00 ir: 1.44E-11 iu: 0.00E+00 rsn:   0
  1 2r: 2.13E-14 2x: 9.19E+02 2u: 5.32E-02 ir: 6.21E-15 iu: 1.09E-03 rsn:   0
  2 2r: 5.45E-18 2x: 9.19E+02 2u: 3.50E-03 ir: 2.71E-18 iu: 5.82E-04 rsn: rtol
 Step  86225 Time=  3.76616E+03 Dt=  4.10959E-01 [y] snes_conv_reason:    3
  newton =   2 [  185304] linear =  5485 [ 383759934] cuts =  0 [****]
  --> max chng: dcmx=   1.1328E-04  dc/dt=   8.7411E-12 [mol/s]

== REACTIVE TRANSPORT ==========================================================
  0 2r: 2.91E-10 2x: 0.00E+00 2u: 0.00E+00 ir: 1.44E-11 iu: 0.00E+00 rsn:   0
  1 2r: 2.34E-14 2x: 9.19E+02 2u: 5.32E-02 ir: 7.04E-15 iu: 1.09E-03 rsn:   0
  2 2r: 2.45E-19 2x: 9.19E+02 2u: 3.43E-03 ir: 9.26E-20 iu: 5.76E-04 rsn: rtol
 Step  86226 Time=  3.76658E+03 Dt=  4.10959E-01 [y] snes_conv_reason:    3
  newton =   2 [  185306] linear =  5447 [ 383765381] cuts =  0 [****]
  --> max chng: dcmx=   1.0367E-04  dc/dt=   7.9993E-12 [mol/s]

== REACTIVE TRANSPORT ==========================================================
  0 2r: 2.91E-10 2x: 0.00E+00 2u: 0.00E+00 ir: 1.44E-11 iu: 0.00E+00 rsn:   0
  1 2r: 1.58E-14 2x: 9.18E+02 2u: 5.32E-02 ir: 1.14E-15 iu: 1.09E-03 rsn:   0
  2 2r: 2.34E-19 2x: 9.18E+02 2u: 3.63E-03 ir: 9.53E-20 iu: 5.89E-04 rsn: rtol
 Step  86227 Time=  3.76699E+03 Dt=  4.10959E-01 [y] snes_conv_reason:    3
  newton =   2 [  185308] linear =  5106 [ 383770487] cuts =  0 [****]
  --> max chng: dcmx=   1.0366E-04  dc/dt=   7.9981E-12 [mol/s]

== REACTIVE TRANSPORT ==========================================================
  0 2r: 2.91E-10 2x: 0.00E+00 2u: 0.00E+00 ir: 1.44E-11 iu: 0.00E+00 rsn:   0
  1 2r: 1.67E-14 2x: 9.18E+02 2u: 5.31E-02 ir: 2.45E-15 iu: 1.09E-03 rsn:   0
  2 2r: 6.28E-18 2x: 9.18E+02 2u: 3.63E-03 ir: 2.51E-18 iu: 5.90E-04 rsn: rtol
 Step  86228 Time=  3.76740E+03 Dt=  4.10959E-01 [y] snes_conv_reason:    3
  newton =   2 [  185310] linear =  5739 [ 383776226] cuts =  0 [****]
  --> max chng: dcmx=   1.0364E-04  dc/dt=   7.9969E-12 [mol/s]

== REACTIVE TRANSPORT ==========================================================
  0 2r: 2.91E-10 2x: 0.00E+00 2u: 0.00E+00 ir: 1.44E-11 iu: 0.00E+00 rsn:   0
  1 2r: 1.60E-14 2x: 9.18E+02 2u: 5.31E-02 ir: 1.96E-15 iu: 1.09E-03 rsn:   0
  2 2r: 2.15E-18 2x: 9.18E+02 2u: 3.62E-03 ir: 8.42E-19 iu: 5.89E-04 rsn: rtol
 Step  86229 Time=  3.76781E+03 Dt=  4.10959E-01 [y] snes_conv_reason:    3
  newton =   2 [  185312] linear =  6223 [ 383782449] cuts =  0 [****]
  --> max chng: dcmx=   1.0362E-04  dc/dt=   7.9957E-12 [mol/s]

== REACTIVE TRANSPORT ==========================================================
  0 2r: 2.91E-10 2x: 0.00E+00 2u: 0.00E+00 ir: 1.44E-11 iu: 0.00E+00 rsn:   0
  1 2r: 3.54E-14 2x: 9.18E+02 2u: 1.06E-01 ir: 5.29E-15 iu: 2.18E-03 rsn:   0
  0 2r: 2.91E-10 2x: 0.00E+00 2u: 0.00E+00 ir: 1.44E-11 iu: 0.00E+00 rsn:   0
  1 2r: 1.58E-14 2x: 9.18E+02 2u: 5.31E-02 ir: 1.14E-15 iu: 1.09E-03 rsn:   0
  2 2r: 2.95E-19 2x: 9.18E+02 2u: 3.50E-03 ir: 1.48E-19 iu: 5.81E-04 rsn: rtol
 Step  86230 Time=  3.76822E+03 Dt=  4.10959E-01 [y] snes_conv_reason:    3
  newton =   3 [  185315] linear = 17847 [ 383800296] cuts =  1 [****]
  --> max chng: dcmx=   1.0361E-04  dc/dt=   7.9946E-12 [mol/s]

== REACTIVE TRANSPORT ==========================================================
  0 2r: 2.91E-10 2x: 0.00E+00 2u: 0.00E+00 ir: 1.44E-11 iu: 0.00E+00 rsn:   0
  1 2r: 2.16E-14 2x: 9.18E+02 2u: 5.31E-02 ir: 7.44E-15 iu: 1.09E-03 rsn:   0
  2 2r: 5.09E-19 2x: 9.18E+02 2u: 3.62E-03 ir: 2.46E-19 iu: 5.89E-04 rsn: rtol
 Step  86231 Time=  3.76863E+03 Dt=  4.10959E-01 [y] snes_conv_reason:    3
  newton =   2 [  185317] linear =  5503 [ 383805799] cuts =  0 [****]
  --> max chng: dcmx=   1.0359E-04  dc/dt=   7.9934E-12 [mol/s]

== REACTIVE TRANSPORT ==========================================================
  0 2r: 2.91E-10 2x: 0.00E+00 2u: 0.00E+00 ir: 1.44E-11 iu: 0.00E+00 rsn:   0
  1 2r: 1.76E-14 2x: 9.18E+02 2u: 5.31E-02 ir: 3.51E-15 iu: 1.09E-03 rsn:   0
  2 2r: 4.32E-19 2x: 9.18E+02 2u: 3.60E-03 ir: 2.19E-19 iu: 5.88E-04 rsn: rtol
 Step  86232 Time=  3.76904E+03 Dt=  4.10959E-01 [y] snes_conv_reason:    3
  newton =   2 [  185319] linear =  4837 [ 383810636] cuts =  0 [****]
  --> max chng: dcmx=   1.0358E-04  dc/dt=   7.9922E-12 [mol/s]

== REACTIVE TRANSPORT ==========================================================
  0 2r: 2.90E-10 2x: 0.00E+00 2u: 0.00E+00 ir: 1.44E-11 iu: 0.00E+00 rsn:   0
  1 2r: 1.65E-14 2x: 9.18E+02 2u: 5.31E-02 ir: 1.92E-15 iu: 1.09E-03 rsn:   0
  2 2r: 1.34E-18 2x: 9.18E+02 2u: 3.46E-03 ir: 5.12E-19 iu: 5.78E-04 rsn: rtol
 Step  86233 Time=  3.76945E+03 Dt=  4.10959E-01 [y] snes_conv_reason:    3
  newton =   2 [  185321] linear =  7303 [ 383817939] cuts =  0 [****]
  --> max chng: dcmx=   1.0356E-04  dc/dt=   7.9910E-12 [mol/s]

== REACTIVE TRANSPORT ==========================================================
  0 2r: 2.90E-10 2x: 0.00E+00 2u: 0.00E+00 ir: 1.44E-11 iu: 0.00E+00 rsn:   0
  1 2r: 1.57E-14 2x: 9.18E+02 2u: 5.31E-02 ir: 1.20E-15 iu: 1.09E-03 rsn:   0
  2 2r: 9.40E-19 2x: 9.18E+02 2u: 3.63E-03 ir: 4.27E-19 iu: 5.89E-04 rsn: rtol
 Step  86234 Time=  3.76986E+03 Dt=  4.10959E-01 [y] snes_conv_reason:    3
  newton =   2 [  185323] linear =  7049 [ 383824988] cuts =  0 [****]
  --> max chng: dcmx=   1.0355E-04  dc/dt=   7.9899E-12 [mol/s]

== REACTIVE TRANSPORT ==========================================================
  0 2r: 2.90E-10 2x: 0.00E+00 2u: 0.00E+00 ir: 1.44E-11 iu: 0.00E+00 rsn:   0
  1 2r: 5.42E-15 2x: 9.18E+02 2u: 1.77E-02 ir: 6.13E-16 iu: 3.62E-04 rsn:   0
  2 2r: 1.20E-19 2x: 9.18E+02 2u: 9.71E-04 ir: 3.12E-20 iu: 1.75E-04 rsn: rtol
 Step  86235 Time=  3.77000E+03 Dt=  1.36986E-01 [y] snes_conv_reason:    3
  newton =   2 [  185325] linear =  1665 [ 383826653] cuts =  0 [****]
  --> max chng: dcmx=   3.4515E-05  dc/dt=   7.9895E-12 [mol/s]

== RICHARDS FLOW ===============================================================
  0 2r: 1.22E-14 2x: 0.00E+00 2u: 0.00E+00 ir: 2.76E-16 iu: 0.00E+00 rsn:   0
  1 2r: 1.22E-14 2x: 1.76E+09 2u: 8.80E-08 ir: 2.76E-16 iu: 1.30E-10 rsn: stol
 Step  45093 Time=  3.78000E+03 Dt=  1.00000E+01 [y] snes_conv_reason:    4
  newton =   1 [   80674] linear =    75 [  22598701] cuts =  0 [****]
  --> max chng: dpmx=   2.3283E-10

== REACTIVE TRANSPORT ==========================================================
  0 2r: 2.90E-10 2x: 0.00E+00 2u: 0.00E+00 ir: 1.44E-11 iu: 0.00E+00 rsn:   0
  1 2r: 1.81E-14 2x: 9.18E+02 2u: 5.31E-02 ir: 3.91E-15 iu: 1.51E-03 rsn:   0
  2 2r: 6.16E-19 2x: 9.18E+02 2u: 3.61E-03 ir: 2.92E-19 iu: 5.88E-04 rsn: rtol
 Step  86236 Time=  3.77041E+03 Dt=  4.10959E-01 [y] snes_conv_reason:    3
  newton =   2 [  185327] linear =  4698 [ 383831351] cuts =  0 [****]
  --> max chng: dcmx=   1.4944E-03  dc/dt=   1.1531E-10 [mol/s]

== REACTIVE TRANSPORT ==========================================================
  0 2r: 2.90E-10 2x: 0.00E+00 2u: 0.00E+00 ir: 1.44E-11 iu: 0.00E+00 rsn:   0
  1 2r: 1.31E-13 2x: 9.18E+02 2u: 1.06E-01 ir: 6.24E-14 iu: 2.23E-03 rsn:   0
  0 2r: 2.90E-10 2x: 0.00E+00 2u: 0.00E+00 ir: 1.44E-11 iu: 0.00E+00 rsn:   0
  1 2r: 1.61E-14 2x: 9.18E+02 2u: 5.31E-02 ir: 2.15E-15 iu: 1.28E-03 rsn:   0
  2 2r: 3.78E-19 2x: 9.18E+02 2u: 3.60E-03 ir: 1.59E-19 iu: 5.88E-04 rsn: rtol
 Step  86237 Time=  3.77082E+03 Dt=  4.10959E-01 [y] snes_conv_reason:    3
  newton =   3 [  185330] linear = 16180 [ 383847531] cuts =  1 [****]
  --> max chng: dcmx=   1.2709E-03  dc/dt=   9.8060E-11 [mol/s]

== REACTIVE TRANSPORT ==========================================================
  0 2r: 2.90E-10 2x: 0.00E+00 2u: 0.00E+00 ir: 1.44E-11 iu: 0.00E+00 rsn:   0
  1 2r: 1.97E-14 2x: 9.18E+02 2u: 5.31E-02 ir: 5.16E-15 iu: 1.09E-03 rsn:   0
  2 2r: 8.95E-18 2x: 9.18E+02 2u: 3.54E-03 ir: 3.29E-18 iu: 5.84E-04 rsn: rtol
 Step  86238 Time=  3.77123E+03 Dt=  4.10959E-01 [y] snes_conv_reason:    3
  newton =   2 [  185332] linear =  7373 [ 383854904] cuts =  0 [****]
  --> max chng: dcmx=   1.0813E-03  dc/dt=   8.3436E-11 [mol/s]

== REACTIVE TRANSPORT ==========================================================
  0 2r: 2.90E-10 2x: 0.00E+00 2u: 0.00E+00 ir: 1.44E-11 iu: 0.00E+00 rsn:   0
  1 2r: 2.62E-14 2x: 9.18E+02 2u: 5.31E-02 ir: 9.74E-15 iu: 1.09E-03 rsn:   0
  2 2r: 5.66E-19 2x: 9.18E+02 2u: 3.48E-03 ir: 3.00E-19 iu: 5.79E-04 rsn: rtol
 Step  86239 Time=  3.77164E+03 Dt=  4.10959E-01 [y] snes_conv_reason:    3
  newton =   2 [  185334] linear =  4899 [ 383859803] cuts =  0 [****]
  --> max chng: dcmx=   9.2056E-04  dc/dt=   7.1031E-11 [mol/s]

== REACTIVE TRANSPORT ==========================================================
  0 2r: 2.90E-10 2x: 0.00E+00 2u: 0.00E+00 ir: 1.44E-11 iu: 0.00E+00 rsn:   0
  1 2r: 1.99E-14 2x: 9.18E+02 2u: 5.31E-02 ir: 5.70E-15 iu: 1.09E-03 rsn:   0
  2 2r: 2.66E-18 2x: 9.18E+02 2u: 3.62E-03 ir: 1.00E-18 iu: 5.89E-04 rsn: rtol
 Step  86240 Time=  3.77205E+03 Dt=  4.10959E-01 [y] snes_conv_reason:    3
  newton =   2 [  185336] linear =  5463 [ 383865266] cuts =  0 [****]
  --> max chng: dcmx=   7.8410E-04  dc/dt=   6.0502E-11 [mol/s]

== REACTIVE TRANSPORT ==========================================================
  0 2r: 2.90E-10 2x: 0.00E+00 2u: 0.00E+00 ir: 1.44E-11 iu: 0.00E+00 rsn:   0
  1 2r: 1.64E-14 2x: 9.18E+02 2u: 5.31E-02 ir: 2.37E-15 iu: 1.09E-03 rsn:   0
  2 2r: 4.82E-18 2x: 9.18E+02 2u: 3.65E-03 ir: 1.91E-18 iu: 5.91E-04 rsn: rtol
 Step  86241 Time=  3.77247E+03 Dt=  4.10959E-01 [y] snes_conv_reason:    3
  newton =   2 [  185338] linear =  5246 [ 383870512] cuts =  0 [****]
  --> max chng: dcmx=   6.6822E-04  dc/dt=   5.1560E-11 [mol/s]

== REACTIVE TRANSPORT ==========================================================
  0 2r: 2.90E-10 2x: 0.00E+00 2u: 0.00E+00 ir: 1.44E-11 iu: 0.00E+00 rsn:   0
  1 2r: 1.64E-14 2x: 9.18E+02 2u: 5.31E-02 ir: 2.29E-15 iu: 1.09E-03 rsn:   0
  2 2r: 2.87E-19 2x: 9.18E+02 2u: 3.29E-03 ir: 1.37E-19 iu: 5.65E-04 rsn: rtol
 Step  86242 Time=  3.77288E+03 Dt=  4.10959E-01 [y] snes_conv_reason:    3
  newton =   2 [  185340] linear =  7210 [ 383877722] cuts =  0 [****]
  --> max chng: dcmx=   5.6976E-04  dc/dt=   4.3963E-11 [mol/s]

== REACTIVE TRANSPORT ==========================================================
  0 2r: 2.90E-10 2x: 0.00E+00 2u: 0.00E+00 ir: 1.44E-11 iu: 0.00E+00 rsn:   0
  1 2r: 4.19E-14 2x: 9.18E+02 2u: 1.06E-01 ir: 1.01E-14 iu: 2.17E-03 rsn:   0
  2 2r: 2.58E-17 2x: 9.18E+02 2u: 7.81E-03 ir: 1.20E-17 iu: 1.20E-03 rsn: rtol
 Step  86243 Time=  3.77370E+03 Dt=  8.21918E-01 [y] snes_conv_reason:    3
  newton =   2 [  185342] linear =  9658 [ 383887380] cuts =  0 [****]
  --> max chng: dcmx=   8.4816E-04  dc/dt=   3.2722E-11 [mol/s]

== REACTIVE TRANSPORT ==========================================================
  0 2r: 2.90E-10 2x: 0.00E+00 2u: 0.00E+00 ir: 1.44E-11 iu: 0.00E+00 rsn:   0
  1 2r: 7.25E-14 2x: 9.18E+02 2u: 2.12E-01 ir: 1.65E-14 iu: 4.35E-03 rsn:   0
  0 2r: 2.90E-10 2x: 0.00E+00 2u: 0.00E+00 ir: 1.44E-11 iu: 0.00E+00 rsn:   0
  1 2r: 8.29E-14 2x: 9.18E+02 2u: 1.06E-01 ir: 2.65E-14 iu: 2.17E-03 rsn:   0
  0 2r: 2.90E-10 2x: 0.00E+00 2u: 0.00E+00 ir: 1.44E-11 iu: 0.00E+00 rsn:   0
  1 2r: 1.93E-14 2x: 9.18E+02 2u: 5.31E-02 ir: 3.78E-15 iu: 1.09E-03 rsn:   0
  2 2r: 4.83E-19 2x: 9.18E+02 2u: 3.23E-03 ir: 2.07E-19 iu: 5.59E-04 rsn: rtol
 Step  86244 Time=  3.77411E+03 Dt=  4.10959E-01 [y] snes_conv_reason:    3
  newton =   4 [  185346] linear = 26691 [ 383914071] cuts =  2 [****]
  --> max chng: dcmx=   3.6735E-04  dc/dt=   2.8345E-11 [mol/s]

== REACTIVE TRANSPORT ==========================================================
  0 2r: 2.90E-10 2x: 0.00E+00 2u: 0.00E+00 ir: 1.44E-11 iu: 0.00E+00 rsn:   0
  1 2r: 1.70E-14 2x: 9.18E+02 2u: 5.30E-02 ir: 3.30E-15 iu: 1.09E-03 rsn:   0
  2 2r: 4.67E-18 2x: 9.18E+02 2u: 3.48E-03 ir: 2.45E-18 iu: 5.79E-04 rsn: rtol
 Step  86245 Time=  3.77452E+03 Dt=  4.10959E-01 [y] snes_conv_reason:    3
  newton =   2 [  185348] linear =  5197 [ 383919268] cuts =  0 [****]
  --> max chng: dcmx=   3.4445E-04  dc/dt=   2.6578E-11 [mol/s]

== REACTIVE TRANSPORT ==========================================================
  0 2r: 2.90E-10 2x: 0.00E+00 2u: 0.00E+00 ir: 1.44E-11 iu: 0.00E+00 rsn:   0
  1 2r: 1.65E-14 2x: 9.18E+02 2u: 5.31E-02 ir: 2.38E-15 iu: 1.09E-03 rsn:   0
  2 2r: 1.85E-18 2x: 9.18E+02 2u: 3.16E-03 ir: 6.92E-19 iu: 5.52E-04 rsn: rtol
 Step  86246 Time=  3.77493E+03 Dt=  4.10959E-01 [y] snes_conv_reason:    3
  newton =   2 [  185350] linear =  5385 [ 383924653] cuts =  0 [****]
  --> max chng: dcmx=   3.2028E-04  dc/dt=   2.4713E-11 [mol/s]

== REACTIVE TRANSPORT ==========================================================
  0 2r: 2.90E-10 2x: 0.00E+00 2u: 0.00E+00 ir: 1.44E-11 iu: 0.00E+00 rsn:   0
  1 2r: 1.66E-14 2x: 9.18E+02 2u: 5.30E-02 ir: 2.44E-15 iu: 1.09E-03 rsn:   0
  2 2r: 3.07E-17 2x: 9.18E+02 2u: 3.44E-03 ir: 1.34E-17 iu: 5.76E-04 rsn:   0
  0 2r: 2.90E-10 2x: 0.00E+00 2u: 0.00E+00 ir: 1.44E-11 iu: 0.00E+00 rsn:   0
  1 2r: 8.61E-15 2x: 9.18E+02 2u: 2.65E-02 ir: 1.38E-15 iu: 5.42E-04 rsn:   0
  2 2r: 5.75E-19 2x: 9.18E+02 2u: 1.60E-03 ir: 3.16E-19 iu: 2.78E-04 rsn: rtol
 Step  86247 Time=  3.77514E+03 Dt=  2.05479E-01 [y] snes_conv_reason:    3
  newton =   4 [  185354] linear = 19611 [ 383944264] cuts =  1 [****]
  --> max chng: dcmx=   1.5400E-04  dc/dt=   2.3766E-11 [mol/s]

== REACTIVE TRANSPORT ==========================================================
  0 2r: 2.90E-10 2x: 0.00E+00 2u: 0.00E+00 ir: 1.44E-11 iu: 0.00E+00 rsn:   0
  1 2r: 7.88E-15 2x: 9.18E+02 2u: 2.65E-02 ir: 6.86E-16 iu: 5.42E-04 rsn:   0
  2 2r: 1.39E-18 2x: 9.18E+02 2u: 1.58E-03 ir: 5.80E-19 iu: 2.77E-04 rsn: rtol
 Step  86248 Time=  3.77534E+03 Dt=  2.05479E-01 [y] snes_conv_reason:    3
  newton =   2 [  185356] linear =  3643 [ 383947907] cuts =  0 [****]
  --> max chng: dcmx=   1.4783E-04  dc/dt=   2.2813E-11 [mol/s]

== REACTIVE TRANSPORT ==========================================================
  0 2r: 2.90E-10 2x: 0.00E+00 2u: 0.00E+00 ir: 1.44E-11 iu: 0.00E+00 rsn:   0
  1 2r: 7.84E-15 2x: 9.18E+02 2u: 2.65E-02 ir: 5.67E-16 iu: 5.42E-04 rsn:   0
  2 2r: 4.12E-19 2x: 9.18E+02 2u: 1.60E-03 ir: 1.14E-19 iu: 2.78E-04 rsn: rtol
 Step  86249 Time=  3.77555E+03 Dt=  2.05479E-01 [y] snes_conv_reason:    3
  newton =   2 [  185358] linear =  2446 [ 383950353] cuts =  0 [****]
  --> max chng: dcmx=   1.4166E-04  dc/dt=   2.1861E-11 [mol/s]

== REACTIVE TRANSPORT ==========================================================
  0 2r: 2.90E-10 2x: 0.00E+00 2u: 0.00E+00 ir: 1.44E-11 iu: 0.00E+00 rsn:   0
  1 2r: 2.15E-14 2x: 9.18E+02 2u: 2.65E-02 ir: 6.57E-15 iu: 5.42E-04 rsn:   0
  2 2r: 1.47E-19 2x: 9.18E+02 2u: 1.56E-03 ir: 5.79E-20 iu: 2.75E-04 rsn: rtol
 Step  86250 Time=  3.77575E+03 Dt=  2.05479E-01 [y] snes_conv_reason:    3
  newton =   2 [  185360] linear =  3337 [ 383953690] cuts =  0 [****]
  --> max chng: dcmx=   1.3554E-04  dc/dt=   2.0916E-11 [mol/s]

== REACTIVE TRANSPORT ==========================================================
  0 2r: 2.90E-10 2x: 0.00E+00 2u: 0.00E+00 ir: 1.44E-11 iu: 0.00E+00 rsn:   0
  1 2r: 7.87E-15 2x: 9.18E+02 2u: 2.65E-02 ir: 5.67E-16 iu: 5.42E-04 rsn:   0
  0 2r: 2.90E-10 2x: 0.00E+00 2u: 0.00E+00 ir: 1.44E-11 iu: 0.00E+00 rsn:   0
  1 2r: 1.53E-14 2x: 9.18E+02 2u: 1.33E-02 ir: 5.91E-15 iu: 2.71E-04 rsn:   0
  2 2r: 1.08E-19 2x: 9.18E+02 2u: 6.49E-04 ir: 1.89E-20 iu: 1.20E-04 rsn: rtol
 Step  86251 Time=  3.77586E+03 Dt=  1.02740E-01 [y] snes_conv_reason:    3
  newton =   3 [  185363] linear =  4422 [ 383958112] cuts =  1 [****]
  --> max chng: dcmx=   6.6246E-05  dc/dt=   2.0446E-11 [mol/s]

== REACTIVE TRANSPORT ==========================================================
  0 2r: 2.90E-10 2x: 0.00E+00 2u: 0.00E+00 ir: 1.44E-11 iu: 0.00E+00 rsn:   0
  1 2r: 1.59E-14 2x: 9.18E+02 2u: 1.33E-02 ir: 6.76E-15 iu: 2.71E-04 rsn:   0
  2 2r: 6.12E-19 2x: 9.18E+02 2u: 6.45E-04 ir: 4.15E-19 iu: 1.19E-04 rsn: rtol
 Step  86252 Time=  3.77596E+03 Dt=  1.02740E-01 [y] snes_conv_reason:    3
  newton =   2 [  185365] linear =  1541 [ 383959653] cuts =  0 [****]
  --> max chng: dcmx=   6.4735E-05  dc/dt=   1.9980E-11 [mol/s]

== REACTIVE TRANSPORT ==========================================================
  0 2r: 2.90E-10 2x: 0.00E+00 2u: 0.00E+00 ir: 1.43E-11 iu: 0.00E+00 rsn:   0
  1 2r: 6.19E-15 2x: 9.18E+02 2u: 1.33E-02 ir: 1.49E-15 iu: 2.71E-04 rsn:   0
  2 2r: 1.07E-19 2x: 9.18E+02 2u: 6.62E-04 ir: 1.12E-20 iu: 1.22E-04 rsn: rtol
 Step  86253 Time=  3.77606E+03 Dt=  1.02740E-01 [y] snes_conv_reason:    3
  newton =   2 [  185367] linear =  1733 [ 383961386] cuts =  0 [****]
  --> max chng: dcmx=   6.3235E-05  dc/dt=   1.9517E-11 [mol/s]

== REACTIVE TRANSPORT ==========================================================
  0 2r: 2.90E-10 2x: 0.00E+00 2u: 0.00E+00 ir: 1.43E-11 iu: 0.00E+00 rsn:   0
  1 2r: 1.61E-14 2x: 9.18E+02 2u: 1.33E-02 ir: 6.67E-15 iu: 2.71E-04 rsn:   0
  2 2r: 1.47E-19 2x: 9.18E+02 2u: 6.44E-04 ir: 5.84E-20 iu: 1.19E-04 rsn: rtol
 Step  86254 Time=  3.77616E+03 Dt=  1.02740E-01 [y] snes_conv_reason:    3
  newton =   2 [  185369] linear =  1740 [ 383963126] cuts =  0 [****]
  --> max chng: dcmx=   6.1749E-05  dc/dt=   1.9058E-11 [mol/s]

== REACTIVE TRANSPORT ==========================================================
  0 2r: 2.90E-10 2x: 0.00E+00 2u: 0.00E+00 ir: 1.43E-11 iu: 0.00E+00 rsn:   0
  1 2r: 1.60E-14 2x: 9.18E+02 2u: 1.33E-02 ir: 6.37E-15 iu: 2.71E-04 rsn:   0
  2 2r: 1.06E-19 2x: 9.18E+02 2u: 6.43E-04 ir: 9.90E-21 iu: 1.19E-04 rsn: rtol
 Step  86255 Time=  3.77627E+03 Dt=  1.02740E-01 [y] snes_conv_reason:    3
  newton =   2 [  185371] linear =  1730 [ 383964856] cuts =  0 [****]
  --> max chng: dcmx=   6.0278E-05  dc/dt=   1.8604E-11 [mol/s]

== REACTIVE TRANSPORT ==========================================================
  0 2r: 2.90E-10 2x: 0.00E+00 2u: 0.00E+00 ir: 1.43E-11 iu: 0.00E+00 rsn:   0
  1 2r: 1.60E-14 2x: 9.18E+02 2u: 1.33E-02 ir: 6.77E-15 iu: 2.71E-04 rsn:   0
  2 2r: 1.10E-19 2x: 9.18E+02 2u: 6.43E-04 ir: 1.84E-20 iu: 1.19E-04 rsn: rtol
 Step  86256 Time=  3.77637E+03 Dt=  1.02740E-01 [y] snes_conv_reason:    3
  newton =   2 [  185373] linear =  1781 [ 383966637] cuts =  0 [****]
  --> max chng: dcmx=   5.8823E-05  dc/dt=   1.8155E-11 [mol/s]

== REACTIVE TRANSPORT ==========================================================
  0 2r: 2.90E-10 2x: 0.00E+00 2u: 0.00E+00 ir: 1.43E-11 iu: 0.00E+00 rsn:   0
  1 2r: 8.06E-15 2x: 9.18E+02 2u: 2.65E-02 ir: 9.18E-16 iu: 5.42E-04 rsn:   0
  2 2r: 1.29E-19 2x: 9.18E+02 2u: 1.53E-03 ir: 3.36E-20 iu: 2.72E-04 rsn: rtol
 Step  86257 Time=  3.77658E+03 Dt=  2.05479E-01 [y] snes_conv_reason:    3
  newton =   2 [  185375] linear =  3120 [ 383969757] cuts =  0 [****]
  --> max chng: dcmx=   1.1198E-04  dc/dt=   1.7281E-11 [mol/s]

== REACTIVE TRANSPORT ==========================================================
  0 2r: 2.90E-10 2x: 0.00E+00 2u: 0.00E+00 ir: 1.43E-11 iu: 0.00E+00 rsn:   0
  1 2r: 1.62E-14 2x: 9.17E+02 2u: 5.30E-02 ir: 1.71E-15 iu: 1.08E-03 rsn:   0
  2 2r: 2.39E-17 2x: 9.17E+02 2u: 3.34E-03 ir: 1.03E-17 iu: 5.69E-04 rsn: rtol
 Step  86258 Time=  3.77699E+03 Dt=  4.10959E-01 [y] snes_conv_reason:    3
  newton =   2 [  185377] linear =  7018 [ 383976775] cuts =  0 [****]
  --> max chng: dcmx=   2.0266E-04  dc/dt=   1.5637E-11 [mol/s]

== REACTIVE TRANSPORT ==========================================================
  0 2r: 2.90E-10 2x: 0.00E+00 2u: 0.00E+00 ir: 1.43E-11 iu: 0.00E+00 rsn:   0
  1 2r: 1.08E-13 2x: 9.17E+02 2u: 1.06E-01 ir: 3.80E-14 iu: 2.17E-03 rsn:   0
  0 2r: 2.90E-10 2x: 0.00E+00 2u: 0.00E+00 ir: 1.43E-11 iu: 0.00E+00 rsn:   0
  1 2r: 2.07E-14 2x: 9.17E+02 2u: 5.30E-02 ir: 6.32E-15 iu: 1.08E-03 rsn:   0
  2 2r: 3.58E-19 2x: 9.17E+02 2u: 3.32E-03 ir: 1.79E-19 iu: 5.67E-04 rsn: rtol
 Step  86259 Time=  3.77740E+03 Dt=  4.10959E-01 [y] snes_conv_reason:    3
  newton =   3 [  185380] linear = 15123 [ 383991898] cuts =  1 [****]
  --> max chng: dcmx=   1.8282E-04  dc/dt=   1.4106E-11 [mol/s]

== REACTIVE TRANSPORT ==========================================================
  0 2r: 2.90E-10 2x: 0.00E+00 2u: 0.00E+00 ir: 1.43E-11 iu: 0.00E+00 rsn:   0
  1 2r: 7.07E-14 2x: 9.17E+02 2u: 5.30E-02 ir: 2.87E-14 iu: 1.08E-03 rsn:   0
  2 2r: 8.46E-19 2x: 9.17E+02 2u: 3.32E-03 ir: 4.31E-19 iu: 5.66E-04 rsn: rtol
 Step  86260 Time=  3.77781E+03 Dt=  4.10959E-01 [y] snes_conv_reason:    3
  newton =   2 [  185382] linear =  5900 [ 383997798] cuts =  0 [****]
  --> max chng: dcmx=   1.6447E-04  dc/dt=   1.2691E-11 [mol/s]

== REACTIVE TRANSPORT ==========================================================
  0 2r: 2.90E-10 2x: 0.00E+00 2u: 0.00E+00 ir: 1.43E-11 iu: 0.00E+00 rsn:   0
  1 2r: 1.95E-14 2x: 9.17E+02 2u: 5.30E-02 ir: 3.94E-15 iu: 1.08E-03 rsn:   0
  2 2r: 4.38E-18 2x: 9.17E+02 2u: 3.41E-03 ir: 2.27E-18 iu: 5.73E-04 rsn: rtol
 Step  86261 Time=  3.77822E+03 Dt=  4.10959E-01 [y] snes_conv_reason:    3
  newton =   2 [  185384] linear =  5348 [ 384003146] cuts =  0 [****]
  --> max chng: dcmx=   1.4761E-04  dc/dt=   1.1390E-11 [mol/s]

== REACTIVE TRANSPORT ==========================================================
  0 2r: 2.90E-10 2x: 0.00E+00 2u: 0.00E+00 ir: 1.43E-11 iu: 0.00E+00 rsn:   0
  1 2r: 1.57E-14 2x: 9.17E+02 2u: 5.30E-02 ir: 1.13E-15 iu: 1.08E-03 rsn:   0
  2 2r: 1.51E-18 2x: 9.17E+02 2u: 3.43E-03 ir: 6.00E-19 iu: 5.75E-04 rsn: rtol
 Step  86262 Time=  3.77863E+03 Dt=  4.10959E-01 [y] snes_conv_reason:    3
  newton =   2 [  185386] linear =  4482 [ 384007628] cuts =  0 [****]
  --> max chng: dcmx=   1.3220E-04  dc/dt=   1.0201E-11 [mol/s]

== REACTIVE TRANSPORT ==========================================================
  0 2r: 2.90E-10 2x: 0.00E+00 2u: 0.00E+00 ir: 1.43E-11 iu: 0.00E+00 rsn:   0
  1 2r: 1.61E-14 2x: 9.17E+02 2u: 5.30E-02 ir: 2.23E-15 iu: 1.08E-03 rsn:   0
  2 2r: 6.80E-19 2x: 9.17E+02 2u: 3.48E-03 ir: 2.32E-19 iu: 5.79E-04 rsn: rtol
 Step  86263 Time=  3.77904E+03 Dt=  4.10959E-01 [y] snes_conv_reason:    3
  newton =   2 [  185388] linear =  5649 [ 384013277] cuts =  0 [****]
  --> max chng: dcmx=   1.1818E-04  dc/dt=   9.1186E-12 [mol/s]

== REACTIVE TRANSPORT ==========================================================
  0 2r: 2.90E-10 2x: 0.00E+00 2u: 0.00E+00 ir: 1.43E-11 iu: 0.00E+00 rsn:   0
  1 2r: 1.62E-14 2x: 9.17E+02 2u: 5.30E-02 ir: 2.41E-15 iu: 1.08E-03 rsn:   0
  2 2r: 2.57E-17 2x: 9.17E+02 2u: 3.37E-03 ir: 9.81E-18 iu: 5.70E-04 rsn: rtol
 Step  86264 Time=  3.77945E+03 Dt=  4.10959E-01 [y] snes_conv_reason:    3
  newton =   2 [  185390] linear =  6665 [ 384019942] cuts =  0 [****]
  --> max chng: dcmx=   1.0546E-04  dc/dt=   8.1375E-12 [mol/s]

== REACTIVE TRANSPORT ==========================================================
  0 2r: 2.90E-10 2x: 0.00E+00 2u: 0.00E+00 ir: 1.43E-11 iu: 0.00E+00 rsn:   0
  1 2r: 2.11E-14 2x: 9.17E+02 2u: 7.06E-02 ir: 1.92E-15 iu: 1.44E-03 rsn:   0
  2 2r: 6.34E-17 2x: 9.17E+02 2u: 4.72E-03 ir: 2.32E-17 iu: 7.75E-04 rsn:   0
  0 2r: 2.90E-10 2x: 0.00E+00 2u: 0.00E+00 ir: 1.43E-11 iu: 0.00E+00 rsn:   0
  1 2r: 1.05E-14 2x: 9.17E+02 2u: 3.53E-02 ir: 8.14E-16 iu: 7.22E-04 rsn:   0
  2 2r: 1.04E-18 2x: 9.17E+02 2u: 2.27E-03 ir: 5.07E-19 iu: 3.82E-04 rsn: rtol
 Step  86265 Time=  3.77973E+03 Dt=  2.73973E-01 [y] snes_conv_reason:    3
  newton =   4 [  185394] linear = 21994 [ 384041936] cuts =  1 [****]
  --> max chng: dcmx=   6.8788E-05  dc/dt=   7.9616E-12 [mol/s]

== REACTIVE TRANSPORT ==========================================================
  0 2r: 2.90E-10 2x: 0.00E+00 2u: 0.00E+00 ir: 1.43E-11 iu: 0.00E+00 rsn:   0
  1 2r: 1.08E-14 2x: 9.17E+02 2u: 3.53E-02 ir: 8.41E-16 iu: 7.22E-04 rsn:   0
  2 2r: 1.97E-19 2x: 9.17E+02 2u: 2.27E-03 ir: 9.74E-20 iu: 3.83E-04 rsn: rtol
 Step  86266 Time=  3.78000E+03 Dt=  2.73973E-01 [y] snes_conv_reason:    3
  newton =   2 [  185396] linear =  3855 [ 384045791] cuts =  0 [****]
  --> max chng: dcmx=   6.8781E-05  dc/dt=   7.9608E-12 [mol/s]

== RICHARDS FLOW ===============================================================
  0 2r: 1.22E-14 2x: 0.00E+00 2u: 0.00E+00 ir: 2.76E-16 iu: 0.00E+00 rsn:   0
  1 2r: 1.22E-14 2x: 1.76E+09 2u: 8.80E-08 ir: 2.76E-16 iu: 1.30E-10 rsn: stol
 Step  45094 Time=  3.79000E+03 Dt=  1.00000E+01 [y] snes_conv_reason:    4
  newton =   1 [   80675] linear =    80 [  22598781] cuts =  0 [****]
  --> max chng: dpmx=   2.3283E-10

== REACTIVE TRANSPORT ==========================================================
  0 2r: 2.90E-10 2x: 0.00E+00 2u: 0.00E+00 ir: 1.43E-11 iu: 0.00E+00 rsn:   0
  1 2r: 1.17E-14 2x: 9.17E+02 2u: 3.53E-02 ir: 1.74E-15 iu: 1.02E-03 rsn:   0
  2 2r: 5.30E-19 2x: 9.17E+02 2u: 2.25E-03 ir: 1.92E-19 iu: 3.80E-04 rsn: rtol
 Step  86267 Time=  3.78027E+03 Dt=  2.73973E-01 [y] snes_conv_reason:    3
  newton =   2 [  185398] linear =  3912 [ 384049703] cuts =  0 [****]
  --> max chng: dcmx=   1.0243E-03  dc/dt=   1.1855E-10 [mol/s]

== REACTIVE TRANSPORT ==========================================================
  0 2r: 2.89E-10 2x: 0.00E+00 2u: 0.00E+00 ir: 1.43E-11 iu: 0.00E+00 rsn:   0
  1 2r: 1.06E-14 2x: 9.17E+02 2u: 3.53E-02 ir: 7.53E-16 iu: 9.16E-04 rsn:   0
  2 2r: 4.03E-19 2x: 9.17E+02 2u: 2.19E-03 ir: 1.88E-19 iu: 3.76E-04 rsn: rtol
 Step  86268 Time=  3.78055E+03 Dt=  2.73973E-01 [y] snes_conv_reason:    3
  newton =   2 [  185400] linear =  3890 [ 384053593] cuts =  0 [****]
  --> max chng: dcmx=   9.1650E-04  dc/dt=   1.0608E-10 [mol/s]

== REACTIVE TRANSPORT ==========================================================
  0 2r: 2.89E-10 2x: 0.00E+00 2u: 0.00E+00 ir: 1.43E-11 iu: 0.00E+00 rsn:   0
  1 2r: 1.48E-14 2x: 9.17E+02 2u: 3.53E-02 ir: 2.23E-15 iu: 8.20E-04 rsn:   0
  2 2r: 9.63E-19 2x: 9.17E+02 2u: 2.25E-03 ir: 3.89E-19 iu: 3.81E-04 rsn: rtol
 Step  86269 Time=  3.78082E+03 Dt=  2.73973E-01 [y] snes_conv_reason:    3
  newton =   2 [  185402] linear =  5648 [ 384059241] cuts =  0 [****]
  --> max chng: dcmx=   8.2025E-04  dc/dt=   9.4936E-11 [mol/s]

== REACTIVE TRANSPORT ==========================================================
  0 2r: 2.89E-10 2x: 0.00E+00 2u: 0.00E+00 ir: 1.43E-11 iu: 0.00E+00 rsn:   0
  1 2r: 1.08E-14 2x: 9.17E+02 2u: 3.53E-02 ir: 1.50E-15 iu: 7.35E-04 rsn:   0
  2 2r: 1.14E-18 2x: 9.17E+02 2u: 2.18E-03 ir: 4.51E-19 iu: 3.75E-04 rsn: rtol
 Step  86270 Time=  3.78110E+03 Dt=  2.73973E-01 [y] snes_conv_reason:    3
  newton =   2 [  185404] linear =  2843 [ 384062084] cuts =  0 [****]
  --> max chng: dcmx=   7.3429E-04  dc/dt=   8.4987E-11 [mol/s]

== REACTIVE TRANSPORT ==========================================================
  0 2r: 2.89E-10 2x: 0.00E+00 2u: 0.00E+00 ir: 1.43E-11 iu: 0.00E+00 rsn:   0
  1 2r: 2.12E-14 2x: 9.17E+02 2u: 7.05E-02 ir: 1.78E-15 iu: 1.44E-03 rsn:   0
  2 2r: 6.62E-18 2x: 9.17E+02 2u: 4.92E-03 ir: 2.94E-18 iu: 7.88E-04 rsn: rtol
 Step  86271 Time=  3.78164E+03 Dt=  5.47945E-01 [y] snes_conv_reason:    3
  newton =   2 [  185406] linear =  7694 [ 384069778] cuts =  0 [****]
  --> max chng: dcmx=   1.1910E-03  dc/dt=   6.8922E-11 [mol/s]

== REACTIVE TRANSPORT ==========================================================
  0 2r: 2.89E-10 2x: 0.00E+00 2u: 0.00E+00 ir: 1.43E-11 iu: 0.00E+00 rsn:   0
  1 2r: 1.35E-13 2x: 9.17E+02 2u: 1.41E-01 ir: 5.68E-14 iu: 2.89E-03 rsn:   0
  0 2r: 2.89E-10 2x: 0.00E+00 2u: 0.00E+00 ir: 1.43E-11 iu: 0.00E+00 rsn:   0
  1 2r: 2.64E-14 2x: 9.17E+02 2u: 7.05E-02 ir: 5.85E-15 iu: 1.44E-03 rsn:   0
  2 2r: 2.04E-18 2x: 9.17E+02 2u: 4.86E-03 ir: 9.09E-19 iu: 7.84E-04 rsn: rtol
 Step  86272 Time=  3.78219E+03 Dt=  5.47945E-01 [y] snes_conv_reason:    3
  newton =   3 [  185409] linear = 17446 [ 384087224] cuts =  1 [****]
  --> max chng: dcmx=   9.6663E-04  dc/dt=   5.5939E-11 [mol/s]

== REACTIVE TRANSPORT ==========================================================
  0 2r: 2.89E-10 2x: 0.00E+00 2u: 0.00E+00 ir: 1.43E-11 iu: 0.00E+00 rsn:   0
  1 2r: 2.74E-14 2x: 9.17E+02 2u: 7.05E-02 ir: 5.97E-15 iu: 1.44E-03 rsn:   0
  2 2r: 1.03E-18 2x: 9.17E+02 2u: 4.82E-03 ir: 5.06E-19 iu: 7.82E-04 rsn: rtol
 Step  86273 Time=  3.78274E+03 Dt=  5.47945E-01 [y] snes_conv_reason:    3
  newton =   2 [  185411] linear =  5423 [ 384092647] cuts =  0 [****]
  --> max chng: dcmx=   7.8519E-04  dc/dt=   4.5439E-11 [mol/s]

== REACTIVE TRANSPORT ==========================================================
  0 2r: 2.89E-10 2x: 0.00E+00 2u: 0.00E+00 ir: 1.43E-11 iu: 0.00E+00 rsn:   0
  1 2r: 2.79E-14 2x: 9.17E+02 2u: 7.05E-02 ir: 6.13E-15 iu: 1.44E-03 rsn:   0
  2 2r: 1.00E-18 2x: 9.17E+02 2u: 4.89E-03 ir: 4.53E-19 iu: 7.86E-04 rsn: rtol
 Step  86274 Time=  3.78329E+03 Dt=  5.47945E-01 [y] snes_conv_reason:    3
  newton =   2 [  185413] linear =  7550 [ 384100197] cuts =  0 [****]
  --> max chng: dcmx=   6.3831E-04  dc/dt=   3.6939E-11 [mol/s]

== REACTIVE TRANSPORT ==========================================================
  0 2r: 2.89E-10 2x: 0.00E+00 2u: 0.00E+00 ir: 1.43E-11 iu: 0.00E+00 rsn:   0
  1 2r: 2.77E-14 2x: 9.17E+02 2u: 7.05E-02 ir: 7.74E-15 iu: 1.44E-03 rsn:   0
  2 2r: 6.32E-17 2x: 9.17E+02 2u: 5.06E-03 ir: 2.53E-17 iu: 7.95E-04 rsn:   0
  0 2r: 2.89E-10 2x: 0.00E+00 2u: 0.00E+00 ir: 1.43E-11 iu: 0.00E+00 rsn:   0
  1 2r: 1.17E-14 2x: 9.17E+02 2u: 3.53E-02 ir: 2.28E-15 iu: 7.21E-04 rsn:   0
  2 2r: 1.23E-18 2x: 9.17E+02 2u: 2.21E-03 ir: 6.08E-19 iu: 3.78E-04 rsn: rtol
 Step  86275 Time=  3.78356E+03 Dt=  2.73973E-01 [y] snes_conv_reason:    3
  newton =   4 [  185417] linear = 21924 [ 384122121] cuts =  1 [****]
  --> max chng: dcmx=   2.8629E-04  dc/dt=   3.3136E-11 [mol/s]

== REACTIVE TRANSPORT ==========================================================
  0 2r: 2.89E-10 2x: 0.00E+00 2u: 0.00E+00 ir: 1.43E-11 iu: 0.00E+00 rsn:   0
  1 2r: 2.07E-14 2x: 9.17E+02 2u: 3.53E-02 ir: 6.14E-15 iu: 7.21E-04 rsn:   0
  2 2r: 1.58E-19 2x: 9.17E+02 2u: 2.21E-03 ir: 5.72E-20 iu: 3.77E-04 rsn: rtol
 Step  86276 Time=  3.78384E+03 Dt=  2.73973E-01 [y] snes_conv_reason:    3
  newton =   2 [  185419] linear =  3829 [ 384125950] cuts =  0 [****]
  --> max chng: dcmx=   2.5688E-04  dc/dt=   2.9731E-11 [mol/s]

== REACTIVE TRANSPORT ==========================================================
  0 2r: 2.89E-10 2x: 0.00E+00 2u: 0.00E+00 ir: 1.43E-11 iu: 0.00E+00 rsn:   0
  1 2r: 1.21E-14 2x: 9.17E+02 2u: 3.53E-02 ir: 2.10E-15 iu: 7.21E-04 rsn:   0
  2 2r: 1.66E-19 2x: 9.17E+02 2u: 2.22E-03 ir: 7.70E-20 iu: 3.78E-04 rsn: rtol
 Step  86277 Time=  3.78411E+03 Dt=  2.73973E-01 [y] snes_conv_reason:    3
  newton =   2 [  185421] linear =  4754 [ 384130704] cuts =  0 [****]
  --> max chng: dcmx=   2.3054E-04  dc/dt=   2.6683E-11 [mol/s]

== REACTIVE TRANSPORT ==========================================================
  0 2r: 2.89E-10 2x: 0.00E+00 2u: 0.00E+00 ir: 1.43E-11 iu: 0.00E+00 rsn:   0
  1 2r: 2.61E-14 2x: 9.17E+02 2u: 3.52E-02 ir: 1.07E-14 iu: 7.21E-04 rsn:   0
  2 2r: 1.59E-18 2x: 9.17E+02 2u: 2.21E-03 ir: 6.37E-19 iu: 3.77E-04 rsn: rtol
 Step  86278 Time=  3.78438E+03 Dt=  2.73973E-01 [y] snes_conv_reason:    3
  newton =   2 [  185423] linear =  3892 [ 384134596] cuts =  0 [****]
  --> max chng: dcmx=   2.1863E-04  dc/dt=   2.5304E-11 [mol/s]

== REACTIVE TRANSPORT ==========================================================
  0 2r: 2.89E-10 2x: 0.00E+00 2u: 0.00E+00 ir: 1.43E-11 iu: 0.00E+00 rsn:   0
  1 2r: 1.05E-14 2x: 9.17E+02 2u: 3.52E-02 ir: 8.19E-16 iu: 7.21E-04 rsn:   0
  2 2r: 2.41E-19 2x: 9.17E+02 2u: 2.21E-03 ir: 7.35E-20 iu: 3.78E-04 rsn: rtol
 Step  86279 Time=  3.78466E+03 Dt=  2.73973E-01 [y] snes_conv_reason:    3
  newton =   2 [  185425] linear =  4059 [ 384138655] cuts =  0 [****]
  --> max chng: dcmx=   2.0910E-04  dc/dt=   2.4201E-11 [mol/s]

== REACTIVE TRANSPORT ==========================================================
  0 2r: 2.89E-10 2x: 0.00E+00 2u: 0.00E+00 ir: 1.43E-11 iu: 0.00E+00 rsn:   0
  1 2r: 1.88E-14 2x: 9.17E+02 2u: 3.52E-02 ir: 6.67E-15 iu: 7.21E-04 rsn:   0
  2 2r: 4.79E-18 2x: 9.17E+02 2u: 2.20E-03 ir: 2.26E-18 iu: 3.76E-04 rsn: rtol
 Step  86280 Time=  3.78493E+03 Dt=  2.73973E-01 [y] snes_conv_reason:    3
  newton =   2 [  185427] linear =  4483 [ 384143138] cuts =  0 [****]
  --> max chng: dcmx=   1.9918E-04  dc/dt=   2.3053E-11 [mol/s]

== REACTIVE TRANSPORT ==========================================================
  0 2r: 2.89E-10 2x: 0.00E+00 2u: 0.00E+00 ir: 1.43E-11 iu: 0.00E+00 rsn:   0
  1 2r: 2.49E-14 2x: 9.17E+02 2u: 7.04E-02 ir: 7.39E-15 iu: 1.44E-03 rsn:   0
  2 2r: 7.39E-17 2x: 9.17E+02 2u: 5.10E-03 ir: 3.85E-17 iu: 7.97E-04 rsn:   0
  0 2r: 2.89E-10 2x: 0.00E+00 2u: 0.00E+00 ir: 1.43E-11 iu: 0.00E+00 rsn:   0
  1 2r: 3.11E-14 2x: 9.17E+02 2u: 3.52E-02 ir: 1.23E-14 iu: 7.21E-04 rsn:   0
  2 2r: 1.82E-18 2x: 9.17E+02 2u: 2.22E-03 ir: 9.12E-19 iu: 3.78E-04 rsn: rtol
 Step  86281 Time=  3.78521E+03 Dt=  2.73973E-01 [y] snes_conv_reason:    3
  newton =   4 [  185431] linear = 22825 [ 384165963] cuts =  1 [****]
  --> max chng: dcmx=   1.8907E-04  dc/dt=   2.1883E-11 [mol/s]

== REACTIVE TRANSPORT ==========================================================
  0 2r: 2.89E-10 2x: 0.00E+00 2u: 0.00E+00 ir: 1.43E-11 iu: 0.00E+00 rsn:   0
  1 2r: 1.06E-14 2x: 9.17E+02 2u: 3.52E-02 ir: 1.15E-15 iu: 7.21E-04 rsn:   0
  2 2r: 1.53E-19 2x: 9.17E+02 2u: 2.19E-03 ir: 5.04E-20 iu: 3.76E-04 rsn: rtol
 Step  86282 Time=  3.78548E+03 Dt=  2.73973E-01 [y] snes_conv_reason:    3
  newton =   2 [  185433] linear =  3082 [ 384169045] cuts =  0 [****]
  --> max chng: dcmx=   1.7891E-04  dc/dt=   2.0707E-11 [mol/s]

== REACTIVE TRANSPORT ==========================================================
  0 2r: 2.89E-10 2x: 0.00E+00 2u: 0.00E+00 ir: 1.43E-11 iu: 0.00E+00 rsn:   0
  1 2r: 1.05E-14 2x: 9.17E+02 2u: 3.52E-02 ir: 1.01E-15 iu: 7.20E-04 rsn:   0
  2 2r: 2.28E-19 2x: 9.17E+02 2u: 2.20E-03 ir: 9.32E-20 iu: 3.77E-04 rsn: rtol
 Step  86283 Time=  3.78575E+03 Dt=  2.73973E-01 [y] snes_conv_reason:    3
  newton =   2 [  185435] linear =  3230 [ 384172275] cuts =  0 [****]
  --> max chng: dcmx=   1.6882E-04  dc/dt=   1.9540E-11 [mol/s]

== REACTIVE TRANSPORT ==========================================================
  0 2r: 2.89E-10 2x: 0.00E+00 2u: 0.00E+00 ir: 1.43E-11 iu: 0.00E+00 rsn:   0
  1 2r: 1.41E-14 2x: 9.17E+02 2u: 3.52E-02 ir: 3.98E-15 iu: 7.20E-04 rsn:   0
  2 2r: 1.98E-18 2x: 9.17E+02 2u: 2.19E-03 ir: 8.65E-19 iu: 3.75E-04 rsn: rtol
 Step  86284 Time=  3.78603E+03 Dt=  2.73973E-01 [y] snes_conv_reason:    3
  newton =   2 [  185437] linear =  3940 [ 384176215] cuts =  0 [****]
  --> max chng: dcmx=   1.5891E-04  dc/dt=   1.8392E-11 [mol/s]

== REACTIVE TRANSPORT ==========================================================
  0 2r: 2.89E-10 2x: 0.00E+00 2u: 0.00E+00 ir: 1.43E-11 iu: 0.00E+00 rsn:   0
  1 2r: 1.62E-14 2x: 9.17E+02 2u: 3.52E-02 ir: 2.41E-15 iu: 7.20E-04 rsn:   0
  2 2r: 3.10E-19 2x: 9.17E+02 2u: 2.27E-03 ir: 1.55E-19 iu: 3.82E-04 rsn: rtol
 Step  86285 Time=  3.78630E+03 Dt=  2.73973E-01 [y] snes_conv_reason:    3
  newton =   2 [  185439] linear =  4397 [ 384180612] cuts =  0 [****]
  --> max chng: dcmx=   1.4924E-04  dc/dt=   1.7274E-11 [mol/s]

== REACTIVE TRANSPORT ==========================================================
  0 2r: 2.89E-10 2x: 0.00E+00 2u: 0.00E+00 ir: 1.43E-11 iu: 0.00E+00 rsn:   0
  1 2r: 2.07E-14 2x: 9.17E+02 2u: 3.52E-02 ir: 5.69E-15 iu: 7.20E-04 rsn:   0
  2 2r: 1.69E-18 2x: 9.17E+02 2u: 2.23E-03 ir: 8.21E-19 iu: 3.79E-04 rsn: rtol
 Step  86286 Time=  3.78658E+03 Dt=  2.73973E-01 [y] snes_conv_reason:    3
  newton =   2 [  185441] linear =  4572 [ 384185184] cuts =  0 [****]
  --> max chng: dcmx=   1.3988E-04  dc/dt=   1.6190E-11 [mol/s]

== REACTIVE TRANSPORT ==========================================================
  0 2r: 2.89E-10 2x: 0.00E+00 2u: 0.00E+00 ir: 1.43E-11 iu: 0.00E+00 rsn:   0
  1 2r: 4.95E-14 2x: 9.16E+02 2u: 7.04E-02 ir: 2.64E-14 iu: 1.44E-03 rsn:   0
  2 2r: 6.65E-18 2x: 9.16E+02 2u: 4.98E-03 ir: 3.48E-18 iu: 7.91E-04 rsn: rtol
 Step  86287 Time=  3.78712E+03 Dt=  5.47945E-01 [y] snes_conv_reason:    3
  newton =   2 [  185443] linear =  7234 [ 384192418] cuts =  0 [****]
  --> max chng: dcmx=   2.4525E-04  dc/dt=   1.4193E-11 [mol/s]

== REACTIVE TRANSPORT ==========================================================
  0 2r: 2.89E-10 2x: 0.00E+00 2u: 0.00E+00 ir: 1.43E-11 iu: 0.00E+00 rsn:   0
  1 2r: 5.15E-14 2x: 9.16E+02 2u: 1.41E-01 ir: 1.06E-14 iu: 2.89E-03 rsn:   0
  0 2r: 2.89E-10 2x: 0.00E+00 2u: 0.00E+00 ir: 1.43E-11 iu: 0.00E+00 rsn:   0
  1 2r: 2.58E-14 2x: 9.16E+02 2u: 7.04E-02 ir: 4.11E-15 iu: 1.44E-03 rsn:   0
  2 2r: 5.94E-18 2x: 9.16E+02 2u: 4.79E-03 ir: 2.82E-18 iu: 7.79E-04 rsn: rtol
 Step  86288 Time=  3.78767E+03 Dt=  5.47945E-01 [y] snes_conv_reason:    3
  newton =   3 [  185446] linear = 17103 [ 384209521] cuts =  1 [****]
  --> max chng: dcmx=   2.1390E-04  dc/dt=   1.2378E-11 [mol/s]

== REACTIVE TRANSPORT ==========================================================
  0 2r: 2.89E-10 2x: 0.00E+00 2u: 0.00E+00 ir: 1.43E-11 iu: 0.00E+00 rsn:   0
  1 2r: 2.20E-14 2x: 9.16E+02 2u: 7.04E-02 ir: 3.10E-15 iu: 1.44E-03 rsn:   0
  2 2r: 1.19E-18 2x: 9.16E+02 2u: 4.81E-03 ir: 7.08E-19 iu: 7.80E-04 rsn: rtol
 Step  86289 Time=  3.78822E+03 Dt=  5.47945E-01 [y] snes_conv_reason:    3
  newton =   2 [  185448] linear =  8724 [ 384218245] cuts =  0 [****]
  --> max chng: dcmx=   1.8573E-04  dc/dt=   1.0748E-11 [mol/s]

== REACTIVE TRANSPORT ==========================================================
  0 2r: 2.89E-10 2x: 0.00E+00 2u: 0.00E+00 ir: 1.43E-11 iu: 0.00E+00 rsn:   0
  1 2r: 4.38E-14 2x: 9.16E+02 2u: 7.04E-02 ir: 1.25E-14 iu: 1.44E-03 rsn:   0
  2 2r: 1.02E-18 2x: 9.16E+02 2u: 4.68E-03 ir: 5.04E-19 iu: 7.70E-04 rsn: rtol
 Step  86290 Time=  3.78877E+03 Dt=  5.47945E-01 [y] snes_conv_reason:    3
  newton =   2 [  185450] linear =  5793 [ 384224038] cuts =  0 [****]
  --> max chng: dcmx=   1.6066E-04  dc/dt=   9.2977E-12 [mol/s]

== REACTIVE TRANSPORT ==========================================================
  0 2r: 2.89E-10 2x: 0.00E+00 2u: 0.00E+00 ir: 1.43E-11 iu: 0.00E+00 rsn:   0
  1 2r: 2.31E-14 2x: 9.16E+02 2u: 7.04E-02 ir: 3.97E-15 iu: 1.44E-03 rsn:   0
  2 2r: 5.39E-19 2x: 9.16E+02 2u: 4.86E-03 ir: 1.97E-19 iu: 7.83E-04 rsn: rtol
 Step  86291 Time=  3.78932E+03 Dt=  5.47945E-01 [y] snes_conv_reason:    3
  newton =   2 [  185452] linear =  8099 [ 384232137] cuts =  0 [****]
  --> max chng: dcmx=   1.3851E-04  dc/dt=   8.0159E-12 [mol/s]

== REACTIVE TRANSPORT ==========================================================
  0 2r: 2.89E-10 2x: 0.00E+00 2u: 0.00E+00 ir: 1.43E-11 iu: 0.00E+00 rsn:   0
  1 2r: 2.19E-14 2x: 9.16E+02 2u: 7.03E-02 ir: 2.37E-15 iu: 1.44E-03 rsn:   0
  2 2r: 2.26E-18 2x: 9.16E+02 2u: 4.93E-03 ir: 9.63E-19 iu: 7.87E-04 rsn: rtol
 Step  86292 Time=  3.78986E+03 Dt=  5.47945E-01 [y] snes_conv_reason:    3
  newton =   2 [  185454] linear =  6743 [ 384238880] cuts =  0 [****]
  --> max chng: dcmx=   1.3707E-04  dc/dt=   7.9323E-12 [mol/s]

== REACTIVE TRANSPORT ==========================================================
  0 2r: 2.89E-10 2x: 0.00E+00 2u: 0.00E+00 ir: 1.43E-11 iu: 0.00E+00 rsn:   0
  1 2r: 1.62E-14 2x: 9.16E+02 2u: 1.76E-02 ir: 4.65E-15 iu: 3.60E-04 rsn:   0
  2 2r: 3.26E-18 2x: 9.16E+02 2u: 9.49E-04 ir: 2.04E-18 iu: 1.72E-04 rsn: rtol
 Step  86293 Time=  3.79000E+03 Dt=  1.36986E-01 [y] snes_conv_reason:    3
  newton =   2 [  185456] linear =  2121 [ 384241001] cuts =  0 [****]
  --> max chng: dcmx=   3.4266E-05  dc/dt=   7.9319E-12 [mol/s]

== RICHARDS FLOW ===============================================================
  0 2r: 1.22E-14 2x: 0.00E+00 2u: 0.00E+00 ir: 2.76E-16 iu: 0.00E+00 rsn:   0
  1 2r: 1.22E-14 2x: 1.76E+09 2u: 8.80E-08 ir: 2.76E-16 iu: 1.31E-10 rsn: stol
 Step  45095 Time=  3.80000E+03 Dt=  1.00000E+01 [y] snes_conv_reason:    4
  newton =   1 [   80676] linear =    79 [  22598860] cuts =  0 [****]
  --> max chng: dpmx=   2.3283E-10

== REACTIVE TRANSPORT ==========================================================
  0 2r: 2.89E-10 2x: 0.00E+00 2u: 0.00E+00 ir: 1.43E-11 iu: 0.00E+00 rsn:   0
  1 2r: 2.21E-14 2x: 9.16E+02 2u: 7.03E-02 ir: 3.74E-15 iu: 1.44E-03 rsn:   0
  2 2r: 1.31E-17 2x: 9.16E+02 2u: 4.85E-03 ir: 5.01E-18 iu: 7.83E-04 rsn: rtol
 Step  86294 Time=  3.79055E+03 Dt=  5.47945E-01 [y] snes_conv_reason:    3
  newton =   2 [  185458] linear =  5621 [ 384246622] cuts =  0 [****]
  --> max chng: dcmx=   1.0321E-03  dc/dt=   5.9727E-11 [mol/s]

== REACTIVE TRANSPORT ==========================================================
  0 2r: 2.89E-10 2x: 0.00E+00 2u: 0.00E+00 ir: 1.43E-11 iu: 0.00E+00 rsn:   0
  1 2r: 5.29E-14 2x: 9.16E+02 2u: 1.41E-01 ir: 9.86E-15 iu: 2.88E-03 rsn:   0
  0 2r: 2.89E-10 2x: 0.00E+00 2u: 0.00E+00 ir: 1.43E-11 iu: 0.00E+00 rsn:   0
  1 2r: 2.76E-14 2x: 9.16E+02 2u: 7.03E-02 ir: 6.31E-15 iu: 1.44E-03 rsn:   0
  2 2r: 1.25E-17 2x: 9.16E+02 2u: 4.76E-03 ir: 6.68E-18 iu: 7.76E-04 rsn: rtol
 Step  86295 Time=  3.79110E+03 Dt=  5.47945E-01 [y] snes_conv_reason:    3
  newton =   3 [  185461] linear = 19240 [ 384265862] cuts =  1 [****]
  --> max chng: dcmx=   8.5860E-04  dc/dt=   4.9688E-11 [mol/s]

== REACTIVE TRANSPORT ==========================================================
  0 2r: 2.89E-10 2x: 0.00E+00 2u: 0.00E+00 ir: 1.43E-11 iu: 0.00E+00 rsn:   0
  1 2r: 2.09E-14 2x: 9.16E+02 2u: 7.03E-02 ir: 1.87E-15 iu: 1.44E-03 rsn:   0
  2 2r: 3.44E-18 2x: 9.16E+02 2u: 4.86E-03 ir: 1.87E-18 iu: 7.83E-04 rsn: rtol
 Step  86296 Time=  3.79164E+03 Dt=  5.47945E-01 [y] snes_conv_reason:    3
  newton =   2 [  185463] linear =  7749 [ 384273611] cuts =  0 [****]
  --> max chng: dcmx=   7.1447E-04  dc/dt=   4.1346E-11 [mol/s]

== REACTIVE TRANSPORT ==========================================================
  0 2r: 2.88E-10 2x: 0.00E+00 2u: 0.00E+00 ir: 1.43E-11 iu: 0.00E+00 rsn:   0
  1 2r: 2.18E-14 2x: 9.16E+02 2u: 7.03E-02 ir: 4.37E-15 iu: 1.44E-03 rsn:   0
  2 2r: 3.53E-17 2x: 9.16E+02 2u: 4.82E-03 ir: 1.25E-17 iu: 7.80E-04 rsn:   0
  0 2r: 2.88E-10 2x: 0.00E+00 2u: 0.00E+00 ir: 1.43E-11 iu: 0.00E+00 rsn:   0
  1 2r: 1.07E-14 2x: 9.16E+02 2u: 3.52E-02 ir: 1.32E-15 iu: 7.19E-04 rsn:   0
  2 2r: 2.22E-17 2x: 9.16E+02 2u: 2.20E-03 ir: 1.16E-17 iu: 3.76E-04 rsn: rtol
 Step  86297 Time=  3.79192E+03 Dt=  2.73973E-01 [y] snes_conv_reason:    3
  newton =   4 [  185467] linear = 20761 [ 384294372] cuts =  1 [****]
  --> max chng: dcmx=   3.2452E-04  dc/dt=   3.7561E-11 [mol/s]

== REACTIVE TRANSPORT ==========================================================
  0 2r: 2.88E-10 2x: 0.00E+00 2u: 0.00E+00 ir: 1.43E-11 iu: 0.00E+00 rsn:   0
  1 2r: 1.05E-14 2x: 9.16E+02 2u: 3.52E-02 ir: 9.47E-16 iu: 7.19E-04 rsn:   0
  2 2r: 2.07E-18 2x: 9.16E+02 2u: 2.25E-03 ir: 1.06E-18 iu: 3.80E-04 rsn: rtol
 Step  86298 Time=  3.79219E+03 Dt=  2.73973E-01 [y] snes_conv_reason:    3
  newton =   2 [  185469] linear =  3547 [ 384297919] cuts =  0 [****]
  --> max chng: dcmx=   2.9483E-04  dc/dt=   3.4123E-11 [mol/s]

== REACTIVE TRANSPORT ==========================================================
  0 2r: 2.88E-10 2x: 0.00E+00 2u: 0.00E+00 ir: 1.43E-11 iu: 0.00E+00 rsn:   0
  1 2r: 1.09E-14 2x: 9.16E+02 2u: 3.51E-02 ir: 1.27E-15 iu: 7.19E-04 rsn:   0
  2 2r: 8.26E-19 2x: 9.16E+02 2u: 2.21E-03 ir: 3.53E-19 iu: 3.77E-04 rsn: rtol
 Step  86299 Time=  3.79247E+03 Dt=  2.73973E-01 [y] snes_conv_reason:    3
  newton =   2 [  185471] linear =  3689 [ 384301608] cuts =  0 [****]
  --> max chng: dcmx=   2.6786E-04  dc/dt=   3.1002E-11 [mol/s]

== REACTIVE TRANSPORT ==========================================================
  0 2r: 2.88E-10 2x: 0.00E+00 2u: 0.00E+00 ir: 1.43E-11 iu: 0.00E+00 rsn:   0
  1 2r: 1.03E-14 2x: 9.16E+02 2u: 3.52E-02 ir: 7.44E-16 iu: 7.19E-04 rsn:   0
  2 2r: 2.93E-19 2x: 9.16E+02 2u: 2.20E-03 ir: 9.51E-20 iu: 3.76E-04 rsn: rtol
 Step  86300 Time=  3.79274E+03 Dt=  2.73973E-01 [y] snes_conv_reason:    3
  newton =   2 [  185473] linear =  4052 [ 384305660] cuts =  0 [****]
  --> max chng: dcmx=   2.4337E-04  dc/dt=   2.8168E-11 [mol/s]

== REACTIVE TRANSPORT ==========================================================
  0 2r: 2.88E-10 2x: 0.00E+00 2u: 0.00E+00 ir: 1.43E-11 iu: 0.00E+00 rsn:   0
  1 2r: 1.05E-14 2x: 9.16E+02 2u: 3.52E-02 ir: 7.85E-16 iu: 7.19E-04 rsn:   0
  2 2r: 2.69E-18 2x: 9.16E+02 2u: 2.10E-03 ir: 1.32E-18 iu: 3.67E-04 rsn: rtol
 Step  86301 Time=  3.79301E+03 Dt=  2.73973E-01 [y] snes_conv_reason:    3
  newton =   2 [  185475] linear =  3768 [ 384309428] cuts =  0 [****]
  --> max chng: dcmx=   2.2114E-04  dc/dt=   2.5594E-11 [mol/s]

== REACTIVE TRANSPORT ==========================================================
  0 2r: 2.88E-10 2x: 0.00E+00 2u: 0.00E+00 ir: 1.43E-11 iu: 0.00E+00 rsn:   0
  1 2r: 1.04E-14 2x: 9.16E+02 2u: 3.51E-02 ir: 7.44E-16 iu: 7.19E-04 rsn:   0
  2 2r: 7.53E-19 2x: 9.16E+02 2u: 2.19E-03 ir: 3.03E-19 iu: 3.75E-04 rsn: rtol
 Step  86302 Time=  3.79329E+03 Dt=  2.73973E-01 [y] snes_conv_reason:    3
  newton =   2 [  185477] linear =  3977 [ 384313405] cuts =  0 [****]
  --> max chng: dcmx=   2.0094E-04  dc/dt=   2.3257E-11 [mol/s]

== REACTIVE TRANSPORT ==========================================================
  0 2r: 2.88E-10 2x: 0.00E+00 2u: 0.00E+00 ir: 1.43E-11 iu: 0.00E+00 rsn:   0
  1 2r: 2.73E-14 2x: 9.16E+02 2u: 7.02E-02 ir: 6.61E-15 iu: 1.44E-03 rsn:   0
  2 2r: 6.09E-17 2x: 9.16E+02 2u: 4.98E-03 ir: 3.21E-17 iu: 7.91E-04 rsn:   0
  0 2r: 2.88E-10 2x: 0.00E+00 2u: 0.00E+00 ir: 1.43E-11 iu: 0.00E+00 rsn:   0
  1 2r: 1.04E-14 2x: 9.16E+02 2u: 3.51E-02 ir: 9.56E-16 iu: 7.18E-04 rsn:   0
  2 2r: 4.63E-19 2x: 9.16E+02 2u: 2.22E-03 ir: 2.49E-19 iu: 3.77E-04 rsn: rtol
 Step  86303 Time=  3.79356E+03 Dt=  2.73973E-01 [y] snes_conv_reason:    3
  newton =   4 [  185481] linear = 21311 [ 384334716] cuts =  1 [****]
  --> max chng: dcmx=   1.8259E-04  dc/dt=   2.1134E-11 [mol/s]

== REACTIVE TRANSPORT ==========================================================
  0 2r: 2.88E-10 2x: 0.00E+00 2u: 0.00E+00 ir: 1.43E-11 iu: 0.00E+00 rsn:   0
  1 2r: 1.09E-14 2x: 9.16E+02 2u: 3.51E-02 ir: 1.62E-15 iu: 7.18E-04 rsn:   0
  2 2r: 5.87E-19 2x: 9.16E+02 2u: 2.26E-03 ir: 2.84E-19 iu: 3.80E-04 rsn: rtol
 Step  86304 Time=  3.79384E+03 Dt=  2.73973E-01 [y] snes_conv_reason:    3
  newton =   2 [  185483] linear =  3695 [ 384338411] cuts =  0 [****]
  --> max chng: dcmx=   1.6593E-04  dc/dt=   1.9205E-11 [mol/s]

== REACTIVE TRANSPORT ==========================================================
  0 2r: 2.88E-10 2x: 0.00E+00 2u: 0.00E+00 ir: 1.43E-11 iu: 0.00E+00 rsn:   0
  1 2r: 1.77E-14 2x: 9.16E+02 2u: 3.51E-02 ir: 6.39E-15 iu: 7.18E-04 rsn:   0
  2 2r: 3.19E-19 2x: 9.16E+02 2u: 2.25E-03 ir: 1.38E-19 iu: 3.79E-04 rsn: rtol
 Step  86305 Time=  3.79411E+03 Dt=  2.73973E-01 [y] snes_conv_reason:    3
  newton =   2 [  185485] linear =  3514 [ 384341925] cuts =  0 [****]
  --> max chng: dcmx=   1.5079E-04  dc/dt=   1.7453E-11 [mol/s]

== REACTIVE TRANSPORT ==========================================================
  0 2r: 2.88E-10 2x: 0.00E+00 2u: 0.00E+00 ir: 1.43E-11 iu: 0.00E+00 rsn:   0
  1 2r: 1.95E-14 2x: 9.16E+02 2u: 3.51E-02 ir: 7.54E-15 iu: 7.18E-04 rsn:   0
  2 2r: 1.52E-19 2x: 9.16E+02 2u: 2.22E-03 ir: 4.20E-20 iu: 3.77E-04 rsn: rtol
 Step  86306 Time=  3.79438E+03 Dt=  2.73973E-01 [y] snes_conv_reason:    3
  newton =   2 [  185487] linear =  3451 [ 384345376] cuts =  0 [****]
  --> max chng: dcmx=   1.3704E-04  dc/dt=   1.5861E-11 [mol/s]

== REACTIVE TRANSPORT ==========================================================
  0 2r: 2.88E-10 2x: 0.00E+00 2u: 0.00E+00 ir: 1.43E-11 iu: 0.00E+00 rsn:   0
  1 2r: 1.13E-14 2x: 9.16E+02 2u: 3.51E-02 ir: 1.36E-15 iu: 7.18E-04 rsn:   0
  2 2r: 2.07E-19 2x: 9.16E+02 2u: 2.23E-03 ir: 7.69E-20 iu: 3.78E-04 rsn: rtol
 Step  86307 Time=  3.79466E+03 Dt=  2.73973E-01 [y] snes_conv_reason:    3
  newton =   2 [  185489] linear =  4282 [ 384349658] cuts =  0 [****]
  --> max chng: dcmx=   1.2455E-04  dc/dt=   1.4416E-11 [mol/s]

== REACTIVE TRANSPORT ==========================================================
  0 2r: 2.88E-10 2x: 0.00E+00 2u: 0.00E+00 ir: 1.43E-11 iu: 0.00E+00 rsn:   0
  1 2r: 1.14E-14 2x: 9.16E+02 2u: 3.51E-02 ir: 1.39E-15 iu: 7.18E-04 rsn:   0
  2 2r: 1.78E-18 2x: 9.16E+02 2u: 2.23E-03 ir: 7.52E-19 iu: 3.77E-04 rsn: rtol
 Step  86308 Time=  3.79493E+03 Dt=  2.73973E-01 [y] snes_conv_reason:    3
  newton =   2 [  185491] linear =  3637 [ 384353295] cuts =  0 [****]
  --> max chng: dcmx=   1.1320E-04  dc/dt=   1.3102E-11 [mol/s]

== REACTIVE TRANSPORT ==========================================================
  0 2r: 2.88E-10 2x: 0.00E+00 2u: 0.00E+00 ir: 1.43E-11 iu: 0.00E+00 rsn:   0
  1 2r: 5.37E-14 2x: 9.16E+02 2u: 7.02E-02 ir: 1.87E-14 iu: 1.44E-03 rsn:   0
  2 2r: 9.89E-17 2x: 9.16E+02 2u: 4.76E-03 ir: 4.34E-17 iu: 7.76E-04 rsn:   0
  0 2r: 2.88E-10 2x: 0.00E+00 2u: 0.00E+00 ir: 1.43E-11 iu: 0.00E+00 rsn:   0
  1 2r: 2.92E-14 2x: 9.16E+02 2u: 3.51E-02 ir: 1.11E-14 iu: 7.18E-04 rsn:   0
  2 2r: 2.70E-19 2x: 9.16E+02 2u: 2.19E-03 ir: 1.06E-19 iu: 3.75E-04 rsn: rtol
 Step  86309 Time=  3.79521E+03 Dt=  2.73973E-01 [y] snes_conv_reason:    3
  newton =   4 [  185495] linear = 23713 [ 384377008] cuts =  1 [****]
  --> max chng: dcmx=   1.0289E-04  dc/dt=   1.1909E-11 [mol/s]

== REACTIVE TRANSPORT ==========================================================
  0 2r: 2.88E-10 2x: 0.00E+00 2u: 0.00E+00 ir: 1.43E-11 iu: 0.00E+00 rsn:   0
  1 2r: 1.04E-14 2x: 9.16E+02 2u: 3.51E-02 ir: 9.77E-16 iu: 7.18E-04 rsn:   0
  2 2r: 1.95E-19 2x: 9.16E+02 2u: 2.24E-03 ir: 8.27E-20 iu: 3.79E-04 rsn: rtol
 Step  86310 Time=  3.79548E+03 Dt=  2.73973E-01 [y] snes_conv_reason:    3
  newton =   2 [  185497] linear =  3101 [ 384380109] cuts =  0 [****]
  --> max chng: dcmx=   9.3527E-05  dc/dt=   1.0825E-11 [mol/s]

== REACTIVE TRANSPORT ==========================================================
  0 2r: 2.88E-10 2x: 0.00E+00 2u: 0.00E+00 ir: 1.43E-11 iu: 0.00E+00 rsn:   0
  1 2r: 1.73E-14 2x: 9.16E+02 2u: 3.51E-02 ir: 4.53E-15 iu: 7.18E-04 rsn:   0
  2 2r: 1.73E-19 2x: 9.16E+02 2u: 2.21E-03 ir: 5.83E-20 iu: 3.77E-04 rsn: rtol
 Step  86311 Time=  3.79575E+03 Dt=  2.73973E-01 [y] snes_conv_reason:    3
  newton =   2 [  185499] linear =  3744 [ 384383853] cuts =  0 [****]
  --> max chng: dcmx=   8.5018E-05  dc/dt=   9.8400E-12 [mol/s]

== REACTIVE TRANSPORT ==========================================================
  0 2r: 2.88E-10 2x: 0.00E+00 2u: 0.00E+00 ir: 1.43E-11 iu: 0.00E+00 rsn:   0
  1 2r: 2.35E-14 2x: 9.16E+02 2u: 3.51E-02 ir: 5.70E-15 iu: 7.18E-04 rsn:   0
  2 2r: 2.25E-19 2x: 9.16E+02 2u: 2.26E-03 ir: 6.88E-20 iu: 3.80E-04 rsn: rtol
 Step  86312 Time=  3.79603E+03 Dt=  2.73973E-01 [y] snes_conv_reason:    3
  newton =   2 [  185501] linear =  4182 [ 384388035] cuts =  0 [****]
  --> max chng: dcmx=   7.7287E-05  dc/dt=   8.9452E-12 [mol/s]

== REACTIVE TRANSPORT ==========================================================
  0 2r: 2.88E-10 2x: 0.00E+00 2u: 0.00E+00 ir: 1.43E-11 iu: 0.00E+00 rsn:   0
  1 2r: 1.04E-14 2x: 9.16E+02 2u: 3.51E-02 ir: 8.16E-16 iu: 7.18E-04 rsn:   0
  2 2r: 2.40E-19 2x: 9.16E+02 2u: 2.16E-03 ir: 5.94E-20 iu: 3.72E-04 rsn: rtol
 Step  86313 Time=  3.79630E+03 Dt=  2.73973E-01 [y] snes_conv_reason:    3
  newton =   2 [  185503] linear =  3371 [ 384391406] cuts =  0 [****]
  --> max chng: dcmx=   7.0263E-05  dc/dt=   8.1323E-12 [mol/s]

== REACTIVE TRANSPORT ==========================================================
  0 2r: 2.88E-10 2x: 0.00E+00 2u: 0.00E+00 ir: 1.43E-11 iu: 0.00E+00 rsn:   0
  1 2r: 1.20E-14 2x: 9.16E+02 2u: 3.51E-02 ir: 1.73E-15 iu: 7.18E-04 rsn:   0
  2 2r: 2.54E-19 2x: 9.16E+02 2u: 2.26E-03 ir: 1.35E-19 iu: 3.80E-04 rsn: rtol
 Step  86314 Time=  3.79658E+03 Dt=  2.73973E-01 [y] snes_conv_reason:    3
  newton =   2 [  185505] linear =  3155 [ 384394561] cuts =  0 [****]
  --> max chng: dcmx=   6.8367E-05  dc/dt=   7.9128E-12 [mol/s]

[...]
  2 2r: 1.42E-17 2x: 5.59E+02 2u: 1.37E-02 ir: 4.88E-18 iu: 3.38E-03 rsn:   0
  3 2r: 1.05E-19 2x: 5.59E+02 2u: 1.91E-05 ir: 1.22E-20 iu: 7.31E-06 rsn: rtol
 Step  91719 Time=  1.08100E+04 Dt=  1.00000E+01 [y] snes_conv_reason:    3
  newton =   3 [  198606] linear =  4765 [ 429307578] cuts =  0 [****]
  --> max chng: dcmx=   3.7046E-02  dc/dt=   1.1747E-10 [mol/s]

== RICHARDS FLOW ===============================================================
  0 2r: 1.22E-14 2x: 0.00E+00 2u: 0.00E+00 ir: 2.76E-16 iu: 0.00E+00 rsn:   0
  1 2r: 1.22E-14 2x: 1.76E+09 2u: 8.80E-08 ir: 2.76E-16 iu: 1.30E-10 rsn: stol
 Step  45797 Time=  1.08200E+04 Dt=  1.00000E+01 [y] snes_conv_reason:    4
  newton =   1 [   81378] linear =    75 [  22653301] cuts =  0 [****]
  --> max chng: dpmx=   2.3283E-10

== REACTIVE TRANSPORT ==========================================================
  0 2r: 8.57E-11 2x: 0.00E+00 2u: 0.00E+00 ir: 4.06E-12 iu: 0.00E+00 rsn:   0
  1 2r: 7.97E-13 2x: 5.59E+02 2u: 3.35E-01 ir: 2.22E-13 iu: 2.03E-02 rsn:   0
  2 2r: 5.26E-17 2x: 5.59E+02 2u: 1.06E-02 ir: 1.50E-17 iu: 2.96E-03 rsn:   0
  3 2r: 1.07E-19 2x: 5.59E+02 2u: 1.41E-05 ir: 2.56E-20 iu: 7.89E-06 rsn: rtol
 Step  91720 Time=  1.08200E+04 Dt=  1.00000E+01 [y] snes_conv_reason:    3
  newton =   3 [  198609] linear =  4813 [ 429312391] cuts =  0 [****]
  --> max chng: dcmx=   2.0950E-02  dc/dt=   6.6432E-11 [mol/s]

== RICHARDS FLOW ===============================================================
  0 2r: 1.22E-14 2x: 0.00E+00 2u: 0.00E+00 ir: 2.76E-16 iu: 0.00E+00 rsn:   0
  1 2r: 1.22E-14 2x: 1.76E+09 2u: 8.80E-08 ir: 2.76E-16 iu: 1.26E-10 rsn: stol
 Step  45798 Time=  1.08300E+04 Dt=  1.00000E+01 [y] snes_conv_reason:    4
  newton =   1 [   81379] linear =    75 [  22653376] cuts =  0 [****]
  --> max chng: dpmx=   2.3283E-10

== REACTIVE TRANSPORT ==========================================================
  0 2r: 8.56E-11 2x: 0.00E+00 2u: 0.00E+00 ir: 4.06E-12 iu: 0.00E+00 rsn:   0
  1 2r: 7.65E-14 2x: 5.59E+02 2u: 3.34E-01 ir: 2.63E-14 iu: 2.36E-02 rsn:   0
  2 2r: 4.21E-17 2x: 5.59E+02 2u: 1.36E-02 ir: 1.32E-17 iu: 3.37E-03 rsn:   0
  3 2r: 1.01E-19 2x: 5.59E+02 2u: 1.89E-05 ir: 9.77E-21 iu: 7.14E-06 rsn: rtol
 Step  91721 Time=  1.08300E+04 Dt=  1.00000E+01 [y] snes_conv_reason:    3
  newton =   3 [  198612] linear =  5331 [ 429317722] cuts =  0 [****]
  --> max chng: dcmx=   2.3917E-02  dc/dt=   7.5841E-11 [mol/s]

== RICHARDS FLOW ===============================================================
  0 2r: 1.22E-14 2x: 0.00E+00 2u: 0.00E+00 ir: 2.76E-16 iu: 0.00E+00 rsn:   0
  1 2r: 1.22E-14 2x: 1.76E+09 2u: 8.80E-08 ir: 2.76E-16 iu: 1.30E-10 rsn: stol
 Step  45799 Time=  1.08400E+04 Dt=  1.00000E+01 [y] snes_conv_reason:    4
  newton =   1 [   81380] linear =    75 [  22653451] cuts =  0 [****]
  --> max chng: dpmx=   2.3283E-10

== REACTIVE TRANSPORT ==========================================================
  0 2r: 8.55E-11 2x: 0.00E+00 2u: 0.00E+00 ir: 4.06E-12 iu: 0.00E+00 rsn:   0
  1 2r: 1.72E-13 2x: 5.58E+02 2u: 3.33E-01 ir: 7.58E-14 iu: 1.35E-02 rsn:   0
  2 2r: 6.80E-17 2x: 5.58E+02 2u: 1.34E-02 ir: 3.15E-17 iu: 3.34E-03 rsn:   0
  3 2r: 1.06E-19 2x: 5.58E+02 2u: 1.76E-05 ir: 2.55E-20 iu: 6.11E-06 rsn: rtol
 Step  91722 Time=  1.08400E+04 Dt=  1.00000E+01 [y] snes_conv_reason:    3
  newton =   3 [  198615] linear =  5453 [ 429323175] cuts =  0 [****]
  --> max chng: dcmx=   1.4031E-02  dc/dt=   4.4491E-11 [mol/s]

== RICHARDS FLOW ===============================================================
  0 2r: 1.22E-14 2x: 0.00E+00 2u: 0.00E+00 ir: 2.76E-16 iu: 0.00E+00 rsn:   0
  1 2r: 1.22E-14 2x: 1.76E+09 2u: 8.80E-08 ir: 2.76E-16 iu: 1.26E-10 rsn: stol
 Step  45800 Time=  1.08500E+04 Dt=  1.00000E+01 [y] snes_conv_reason:    4
  newton =   1 [   81381] linear =    75 [  22653526] cuts =  0 [****]
  --> max chng: dpmx=   2.3283E-10

== REACTIVE TRANSPORT ==========================================================
  0 2r: 8.54E-11 2x: 0.00E+00 2u: 0.00E+00 ir: 4.06E-12 iu: 0.00E+00 rsn:   0
  1 2r: 2.32E-13 2x: 5.58E+02 2u: 3.33E-01 ir: 1.03E-13 iu: 7.84E-03 rsn:   0
  2 2r: 1.74E-17 2x: 5.58E+02 2u: 1.39E-02 ir: 7.66E-18 iu: 3.37E-03 rsn:   0
  3 2r: 1.08E-19 2x: 5.58E+02 2u: 2.59E-05 ir: 2.01E-20 iu: 1.82E-05 rsn: rtol
 Step  91723 Time=  1.08500E+04 Dt=  1.00000E+01 [y] snes_conv_reason:    3
  newton =   3 [  198618] linear =  5392 [ 429328567] cuts =  0 [****]
  --> max chng: dcmx=   8.2431E-03  dc/dt=   2.6139E-11 [mol/s]

== RICHARDS FLOW ===============================================================
  0 2r: 1.22E-14 2x: 0.00E+00 2u: 0.00E+00 ir: 2.76E-16 iu: 0.00E+00 rsn:   0
  1 2r: 1.22E-14 2x: 1.76E+09 2u: 8.80E-08 ir: 2.76E-16 iu: 1.30E-10 rsn: stol
 Step  45801 Time=  1.08600E+04 Dt=  1.00000E+01 [y] snes_conv_reason:    4
  newton =   1 [   81382] linear =    75 [  22653601] cuts =  0 [****]
  --> max chng: dpmx=   2.3283E-10

== REACTIVE TRANSPORT ==========================================================
  0 2r: 8.53E-11 2x: 0.00E+00 2u: 0.00E+00 ir: 4.05E-12 iu: 0.00E+00 rsn:   0
  1 2r: 4.70E-14 2x: 5.58E+02 2u: 3.32E-01 ir: 8.30E-15 iu: 6.87E-03 rsn:   0
  2 2r: 6.14E-16 2x: 5.58E+02 2u: 1.39E-02 ir: 2.32E-16 iu: 3.38E-03 rsn:   0
  3 2r: 1.03E-19 2x: 5.58E+02 2u: 1.95E-05 ir: 1.42E-20 iu: 7.25E-06 rsn: rtol
 Step  91724 Time=  1.08600E+04 Dt=  1.00000E+01 [y] snes_conv_reason:    3
  newton =   3 [  198621] linear =  6013 [ 429334580] cuts =  0 [****]
  --> max chng: dcmx=   4.8505E-03  dc/dt=   1.5381E-11 [mol/s]

== RICHARDS FLOW ===============================================================
  0 2r: 1.22E-14 2x: 0.00E+00 2u: 0.00E+00 ir: 2.76E-16 iu: 0.00E+00 rsn:   0
  1 2r: 1.22E-14 2x: 1.76E+09 2u: 8.80E-08 ir: 2.76E-16 iu: 1.26E-10 rsn: stol
 Step  45802 Time=  1.08700E+04 Dt=  1.00000E+01 [y] snes_conv_reason:    4
  newton =   1 [   81383] linear =    75 [  22653676] cuts =  0 [****]
  --> max chng: dpmx=   2.3283E-10

== REACTIVE TRANSPORT ==========================================================
  0 2r: 8.52E-11 2x: 0.00E+00 2u: 0.00E+00 ir: 4.05E-12 iu: 0.00E+00 rsn:   0
  1 2r: 8.62E-14 2x: 5.57E+02 2u: 3.32E-01 ir: 2.21E-14 iu: 6.86E-03 rsn:   0
  2 2r: 1.06E-16 2x: 5.57E+02 2u: 1.28E-02 ir: 3.17E-17 iu: 3.25E-03 rsn:   0
  3 2r: 1.04E-19 2x: 5.57E+02 2u: 2.32E-05 ir: 1.97E-20 iu: 1.51E-05 rsn: rtol
 Step  91725 Time=  1.08700E+04 Dt=  1.00000E+01 [y] snes_conv_reason:    3
  newton =   3 [  198624] linear =  5292 [ 429339872] cuts =  0 [****]
  --> max chng: dcmx=   2.8593E-03  dc/dt=   9.0666E-12 [mol/s]

== RICHARDS FLOW ===============================================================
  0 2r: 1.22E-14 2x: 0.00E+00 2u: 0.00E+00 ir: 2.76E-16 iu: 0.00E+00 rsn:   0
  1 2r: 1.22E-14 2x: 1.76E+09 2u: 8.80E-08 ir: 2.76E-16 iu: 1.30E-10 rsn: stol
 Step  45803 Time=  1.08800E+04 Dt=  1.00000E+01 [y] snes_conv_reason:    4
  newton =   1 [   81384] linear =    75 [  22653751] cuts =  0 [****]
  --> max chng: dpmx=   2.3283E-10

== REACTIVE TRANSPORT ==========================================================
  0 2r: 8.51E-11 2x: 0.00E+00 2u: 0.00E+00 ir: 4.05E-12 iu: 0.00E+00 rsn:   0
  1 2r: 8.55E-14 2x: 5.57E+02 2u: 3.31E-01 ir: 2.17E-14 iu: 6.85E-03 rsn:   0
  2 2r: 4.13E-17 2x: 5.57E+02 2u: 1.38E-02 ir: 1.55E-17 iu: 3.35E-03 rsn:   0
  3 2r: 1.05E-19 2x: 5.57E+02 2u: 2.73E-05 ir: 1.83E-20 iu: 2.00E-05 rsn: rtol
 Step  91726 Time=  1.08800E+04 Dt=  1.00000E+01 [y] snes_conv_reason:    3
  newton =   3 [  198627] linear =  6018 [ 429345890] cuts =  0 [****]
  --> max chng: dcmx=   1.6889E-03  dc/dt=   5.3555E-12 [mol/s]

== RICHARDS FLOW ===============================================================
  0 2r: 1.22E-14 2x: 0.00E+00 2u: 0.00E+00 ir: 2.76E-16 iu: 0.00E+00 rsn:   0
  1 2r: 1.22E-14 2x: 1.76E+09 2u: 8.80E-08 ir: 2.76E-16 iu: 1.26E-10 rsn: stol
 Step  45804 Time=  1.08900E+04 Dt=  1.00000E+01 [y] snes_conv_reason:    4
  newton =   1 [   81385] linear =    75 [  22653826] cuts =  0 [****]
  --> max chng: dpmx=   2.3283E-10

== REACTIVE TRANSPORT ==========================================================
  0 2r: 8.51E-11 2x: 0.00E+00 2u: 0.00E+00 ir: 4.05E-12 iu: 0.00E+00 rsn:   0
  1 2r: 5.55E-14 2x: 5.57E+02 2u: 3.31E-01 ir: 1.14E-14 iu: 6.84E-03 rsn:   0
  2 2r: 1.22E-17 2x: 5.57E+02 2u: 1.35E-02 ir: 4.84E-18 iu: 3.32E-03 rsn:   0
  3 2r: 1.08E-19 2x: 5.57E+02 2u: 2.03E-05 ir: 2.00E-20 iu: 1.16E-05 rsn: rtol
 Step  91727 Time=  1.08900E+04 Dt=  1.00000E+01 [y] snes_conv_reason:    3
  newton =   3 [  198630] linear =  4526 [ 429350416] cuts =  0 [****]
  --> max chng: dcmx=   1.0001E-03  dc/dt=   3.1713E-12 [mol/s]

== RICHARDS FLOW ===============================================================
  0 2r: 1.22E-14 2x: 0.00E+00 2u: 0.00E+00 ir: 2.76E-16 iu: 0.00E+00 rsn:   0
  1 2r: 1.22E-14 2x: 1.76E+09 2u: 8.80E-08 ir: 2.76E-16 iu: 1.30E-10 rsn: stol
 Step  45805 Time=  1.09000E+04 Dt=  1.00000E+01 [y] snes_conv_reason:    4
  newton =   1 [   81386] linear =    75 [  22653901] cuts =  0 [****]
  --> max chng: dpmx=   2.3283E-10

== REACTIVE TRANSPORT ==========================================================
  0 2r: 8.50E-11 2x: 0.00E+00 2u: 0.00E+00 ir: 4.04E-12 iu: 0.00E+00 rsn:   0
  1 2r: 7.84E-13 2x: 5.57E+02 2u: 3.31E-01 ir: 2.11E-13 iu: 6.83E-03 rsn:   0
  2 2r: 6.51E-17 2x: 5.57E+02 2u: 1.30E-02 ir: 1.95E-17 iu: 3.27E-03 rsn:   0
  3 2r: 1.07E-19 2x: 5.57E+02 2u: 1.81E-05 ir: 1.60E-20 iu: 6.92E-06 rsn: rtol
 Step  91728 Time=  1.09000E+04 Dt=  1.00000E+01 [y] snes_conv_reason:    3
  newton =   3 [  198633] linear =  5336 [ 429355752] cuts =  0 [****]
  --> max chng: dcmx=   8.6455E-04  dc/dt=   2.7415E-12 [mol/s]

== RICHARDS FLOW ===============================================================
  0 2r: 1.22E-14 2x: 0.00E+00 2u: 0.00E+00 ir: 2.76E-16 iu: 0.00E+00 rsn:   0
  1 2r: 1.22E-14 2x: 1.76E+09 2u: 8.80E-08 ir: 2.76E-16 iu: 1.26E-10 rsn: stol
 Step  45806 Time=  1.09100E+04 Dt=  1.00000E+01 [y] snes_conv_reason:    4
  newton =   1 [   81387] linear =    75 [  22653976] cuts =  0 [****]
  --> max chng: dpmx=   2.3283E-10

== REACTIVE TRANSPORT ==========================================================
  0 2r: 8.49E-11 2x: 0.00E+00 2u: 0.00E+00 ir: 4.04E-12 iu: 0.00E+00 rsn:   0
  1 2r: 7.76E-14 2x: 5.56E+02 2u: 3.30E-01 ir: 1.95E-14 iu: 6.82E-03 rsn:   0
  2 2r: 4.00E-16 2x: 5.56E+02 2u: 1.20E-02 ir: 1.62E-16 iu: 3.14E-03 rsn:   0
  3 2r: 1.02E-19 2x: 5.56E+02 2u: 2.01E-05 ir: 1.56E-20 iu: 1.08E-05 rsn: rtol
 Step  91729 Time=  1.09100E+04 Dt=  1.00000E+01 [y] snes_conv_reason:    3
  newton =   3 [  198636] linear =  5884 [ 429361636] cuts =  0 [****]
  --> max chng: dcmx=   8.6402E-04  dc/dt=   2.7398E-12 [mol/s]

== RICHARDS FLOW ===============================================================
  0 2r: 1.22E-14 2x: 0.00E+00 2u: 0.00E+00 ir: 2.76E-16 iu: 0.00E+00 rsn:   0
  1 2r: 1.22E-14 2x: 1.76E+09 2u: 8.80E-08 ir: 2.76E-16 iu: 1.30E-10 rsn: stol
 Step  45807 Time=  1.09200E+04 Dt=  1.00000E+01 [y] snes_conv_reason:    4
  newton =   1 [   81388] linear =    75 [  22654051] cuts =  0 [****]
  --> max chng: dpmx=   2.3283E-10

== REACTIVE TRANSPORT ==========================================================
  0 2r: 8.48E-11 2x: 0.00E+00 2u: 0.00E+00 ir: 4.04E-12 iu: 0.00E+00 rsn:   0
  1 2r: 1.02E-13 2x: 5.56E+02 2u: 3.30E-01 ir: 3.37E-14 iu: 6.82E-03 rsn:   0
  2 2r: 7.40E-17 2x: 5.56E+02 2u: 1.36E-02 ir: 2.26E-17 iu: 3.33E-03 rsn:   0
  3 2r: 1.00E-19 2x: 5.56E+02 2u: 1.87E-05 ir: 1.31E-20 iu: 6.93E-06 rsn: rtol
 Step  91730 Time=  1.09200E+04 Dt=  1.00000E+01 [y] snes_conv_reason:    3
  newton =   3 [  198639] linear =  5420 [ 429367056] cuts =  0 [****]
  --> max chng: dcmx=   8.6455E-04  dc/dt=   2.7415E-12 [mol/s]

== RICHARDS FLOW ===============================================================
  0 2r: 1.22E-14 2x: 0.00E+00 2u: 0.00E+00 ir: 2.76E-16 iu: 0.00E+00 rsn:   0
  1 2r: 1.22E-14 2x: 1.76E+09 2u: 8.80E-08 ir: 2.76E-16 iu: 1.26E-10 rsn: stol
 Step  45808 Time=  1.09300E+04 Dt=  1.00000E+01 [y] snes_conv_reason:    4
  newton =   1 [   81389] linear =    75 [  22654126] cuts =  0 [****]
  --> max chng: dpmx=   2.3283E-10

== REACTIVE TRANSPORT ==========================================================
  0 2r: 8.47E-11 2x: 0.00E+00 2u: 0.00E+00 ir: 4.04E-12 iu: 0.00E+00 rsn:   0
  1 2r: 4.59E-14 2x: 5.56E+02 2u: 3.29E-01 ir: 1.00E-14 iu: 6.81E-03 rsn:   0
  2 2r: 4.06E-17 2x: 5.56E+02 2u: 1.17E-02 ir: 1.56E-17 iu: 3.10E-03 rsn:   0
  3 2r: 1.08E-19 2x: 5.56E+02 2u: 2.19E-05 ir: 2.60E-20 iu: 1.49E-05 rsn: rtol
 Step  91731 Time=  1.09300E+04 Dt=  1.00000E+01 [y] snes_conv_reason:    3
  newton =   3 [  198642] linear =  5805 [ 429372861] cuts =  0 [****]
  --> max chng: dcmx=   8.6403E-04  dc/dt=   2.7398E-12 [mol/s]

== RICHARDS FLOW ===============================================================
  0 2r: 1.22E-14 2x: 0.00E+00 2u: 0.00E+00 ir: 2.76E-16 iu: 0.00E+00 rsn:   0
  1 2r: 1.22E-14 2x: 1.76E+09 2u: 8.80E-08 ir: 2.76E-16 iu: 1.30E-10 rsn: stol
 Step  45809 Time=  1.09400E+04 Dt=  1.00000E+01 [y] snes_conv_reason:    4
  newton =   1 [   81390] linear =    75 [  22654201] cuts =  0 [****]
  --> max chng: dpmx=   2.3283E-10

== REACTIVE TRANSPORT ==========================================================
  0 2r: 8.46E-11 2x: 0.00E+00 2u: 0.00E+00 ir: 4.03E-12 iu: 0.00E+00 rsn:   0
  1 2r: 1.44E-13 2x: 5.55E+02 2u: 3.29E-01 ir: 4.12E-14 iu: 6.80E-03 rsn:   0
  2 2r: 7.66E-17 2x: 5.55E+02 2u: 1.09E-02 ir: 2.32E-17 iu: 3.01E-03 rsn:   0
  3 2r: 1.02E-19 2x: 5.55E+02 2u: 2.03E-05 ir: 1.59E-20 iu: 1.31E-05 rsn: rtol
 Step  91732 Time=  1.09400E+04 Dt=  1.00000E+01 [y] snes_conv_reason:    3
  newton =   3 [  198645] linear =  5389 [ 429378250] cuts =  0 [****]
  --> max chng: dcmx=   8.6455E-04  dc/dt=   2.7415E-12 [mol/s]

== RICHARDS FLOW ===============================================================
  0 2r: 1.22E-14 2x: 0.00E+00 2u: 0.00E+00 ir: 2.76E-16 iu: 0.00E+00 rsn:   0
  1 2r: 1.22E-14 2x: 1.76E+09 2u: 8.80E-08 ir: 2.76E-16 iu: 1.26E-10 rsn: stol
 Step  45810 Time=  1.09500E+04 Dt=  1.00000E+01 [y] snes_conv_reason:    4
  newton =   1 [   81391] linear =    75 [  22654276] cuts =  0 [****]
  --> max chng: dpmx=   2.3283E-10

== REACTIVE TRANSPORT ==========================================================
  0 2r: 8.45E-11 2x: 0.00E+00 2u: 0.00E+00 ir: 4.03E-12 iu: 0.00E+00 rsn:   0
  1 2r: 7.19E-13 2x: 5.55E+02 2u: 3.29E-01 ir: 2.14E-13 iu: 6.79E-03 rsn:   0
  2 2r: 1.45E-17 2x: 5.55E+02 2u: 1.11E-02 ir: 5.40E-18 iu: 3.04E-03 rsn:   0
  3 2r: 1.08E-19 2x: 5.55E+02 2u: 1.84E-05 ir: 3.15E-20 iu: 9.27E-06 rsn: rtol
 Step  91733 Time=  1.09500E+04 Dt=  1.00000E+01 [y] snes_conv_reason:    3
  newton =   3 [  198648] linear =  5032 [ 429383282] cuts =  0 [****]
  --> max chng: dcmx=   8.6403E-04  dc/dt=   2.7398E-12 [mol/s]

== RICHARDS FLOW ===============================================================
  0 2r: 1.22E-14 2x: 0.00E+00 2u: 0.00E+00 ir: 2.76E-16 iu: 0.00E+00 rsn:   0
  1 2r: 1.22E-14 2x: 1.76E+09 2u: 8.80E-08 ir: 2.76E-16 iu: 1.30E-10 rsn: stol
 Step  45811 Time=  1.09600E+04 Dt=  1.00000E+01 [y] snes_conv_reason:    4
  newton =   1 [   81392] linear =    75 [  22654351] cuts =  0 [****]
  --> max chng: dpmx=   2.3283E-10

== REACTIVE TRANSPORT ==========================================================
  0 2r: 8.44E-11 2x: 0.00E+00 2u: 0.00E+00 ir: 4.03E-12 iu: 0.00E+00 rsn:   0
  1 2r: 6.81E-14 2x: 5.55E+02 2u: 3.28E-01 ir: 2.37E-14 iu: 6.78E-03 rsn:   0
  2 2r: 5.51E-17 2x: 5.55E+02 2u: 1.26E-02 ir: 1.78E-17 iu: 3.21E-03 rsn:   0
  3 2r: 1.08E-19 2x: 5.55E+02 2u: 1.99E-05 ir: 2.49E-20 iu: 8.97E-06 rsn: rtol
 Step  91734 Time=  1.09600E+04 Dt=  1.00000E+01 [y] snes_conv_reason:    3
  newton =   3 [  198651] linear =  5904 [ 429389186] cuts =  0 [****]
  --> max chng: dcmx=   8.6455E-04  dc/dt=   2.7415E-12 [mol/s]

== RICHARDS FLOW ===============================================================
  0 2r: 1.22E-14 2x: 0.00E+00 2u: 0.00E+00 ir: 2.76E-16 iu: 0.00E+00 rsn:   0
  1 2r: 1.22E-14 2x: 1.76E+09 2u: 8.80E-08 ir: 2.76E-16 iu: 1.26E-10 rsn: stol
 Step  45812 Time=  1.09700E+04 Dt=  1.00000E+01 [y] snes_conv_reason:    4
  newton =   1 [   81393] linear =    75 [  22654426] cuts =  0 [****]
  --> max chng: dpmx=   2.3283E-10

== REACTIVE TRANSPORT ==========================================================
  0 2r: 8.43E-11 2x: 0.00E+00 2u: 0.00E+00 ir: 4.03E-12 iu: 0.00E+00 rsn:   0
  1 2r: 8.09E-14 2x: 5.55E+02 2u: 3.28E-01 ir: 1.82E-14 iu: 6.77E-03 rsn:   0
  2 2r: 8.39E-16 2x: 5.55E+02 2u: 1.37E-02 ir: 2.55E-16 iu: 3.33E-03 rsn:   0
  3 2r: 1.01E-19 2x: 5.55E+02 2u: 1.82E-05 ir: 1.45E-20 iu: 6.10E-06 rsn: rtol
 Step  91735 Time=  1.09700E+04 Dt=  1.00000E+01 [y] snes_conv_reason:    3
  newton =   3 [  198654] linear =  5353 [ 429394539] cuts =  0 [****]
  --> max chng: dcmx=   8.6403E-04  dc/dt=   2.7398E-12 [mol/s]

== RICHARDS FLOW ===============================================================
  0 2r: 1.22E-14 2x: 0.00E+00 2u: 0.00E+00 ir: 2.76E-16 iu: 0.00E+00 rsn:   0
  1 2r: 1.22E-14 2x: 1.76E+09 2u: 8.80E-08 ir: 2.76E-16 iu: 1.30E-10 rsn: stol
 Step  45813 Time=  1.09800E+04 Dt=  1.00000E+01 [y] snes_conv_reason:    4
  newton =   1 [   81394] linear =    75 [  22654501] cuts =  0 [****]
  --> max chng: dpmx=   2.3283E-10

== REACTIVE TRANSPORT ==========================================================
  0 2r: 8.42E-11 2x: 0.00E+00 2u: 0.00E+00 ir: 4.02E-12 iu: 0.00E+00 rsn:   0
  1 2r: 9.85E-14 2x: 5.54E+02 2u: 3.27E-01 ir: 3.77E-14 iu: 6.76E-03 rsn:   0
  2 2r: 1.52E-17 2x: 5.54E+02 2u: 1.25E-02 ir: 5.51E-18 iu: 3.20E-03 rsn:   0
  3 2r: 9.98E-20 2x: 5.54E+02 2u: 2.15E-05 ir: 1.09E-20 iu: 1.33E-05 rsn: rtol
 Step  91736 Time=  1.09800E+04 Dt=  1.00000E+01 [y] snes_conv_reason:    3
  newton =   3 [  198657] linear =  5151 [ 429399690] cuts =  0 [****]
  --> max chng: dcmx=   8.6455E-04  dc/dt=   2.7415E-12 [mol/s]

== RICHARDS FLOW ===============================================================
  0 2r: 1.22E-14 2x: 0.00E+00 2u: 0.00E+00 ir: 2.76E-16 iu: 0.00E+00 rsn:   0
  1 2r: 1.22E-14 2x: 1.76E+09 2u: 8.80E-08 ir: 2.76E-16 iu: 1.26E-10 rsn: stol
 Step  45814 Time=  1.09900E+04 Dt=  1.00000E+01 [y] snes_conv_reason:    4
  newton =   1 [   81395] linear =    75 [  22654576] cuts =  0 [****]
  --> max chng: dpmx=   2.3283E-10

== REACTIVE TRANSPORT ==========================================================
  0 2r: 8.42E-11 2x: 0.00E+00 2u: 0.00E+00 ir: 4.02E-12 iu: 0.00E+00 rsn:   0
  1 2r: 1.48E-13 2x: 5.54E+02 2u: 3.27E-01 ir: 5.97E-14 iu: 6.76E-03 rsn:   0
  2 2r: 2.23E-16 2x: 5.54E+02 2u: 1.32E-02 ir: 8.36E-17 iu: 3.28E-03 rsn:   0
  3 2r: 1.08E-19 2x: 5.54E+02 2u: 1.97E-05 ir: 2.42E-20 iu: 1.21E-05 rsn: rtol
 Step  91737 Time=  1.09900E+04 Dt=  1.00000E+01 [y] snes_conv_reason:    3
  newton =   3 [  198660] linear =  5092 [ 429404782] cuts =  0 [****]
  --> max chng: dcmx=   8.6403E-04  dc/dt=   2.7398E-12 [mol/s]

== RICHARDS FLOW ===============================================================
  0 2r: 1.22E-14 2x: 0.00E+00 2u: 0.00E+00 ir: 2.76E-16 iu: 0.00E+00 rsn:   0
  1 2r: 1.22E-14 2x: 1.76E+09 2u: 8.80E-08 ir: 2.76E-16 iu: 1.30E-10 rsn: stol
 Step  45815 Time=  1.10000E+04 Dt=  1.00000E+01 [y] snes_conv_reason:    4
  newton =   1 [   81396] linear =    75 [  22654651] cuts =  0 [****]
  --> max chng: dpmx=   2.3283E-10

== REACTIVE TRANSPORT ==========================================================
  0 2r: 8.41E-11 2x: 0.00E+00 2u: 0.00E+00 ir: 4.02E-12 iu: 0.00E+00 rsn:   0
  1 2r: 8.89E-14 2x: 5.54E+02 2u: 3.27E-01 ir: 3.26E-14 iu: 6.75E-03 rsn:   0
  2 2r: 4.49E-17 2x: 5.54E+02 2u: 1.10E-02 ir: 1.65E-17 iu: 3.01E-03 rsn:   0
  3 2r: 1.06E-19 2x: 5.54E+02 2u: 2.45E-05 ir: 2.14E-20 iu: 1.90E-05 rsn: rtol
 Step  91738 Time=  1.10000E+04 Dt=  1.00000E+01 [y] snes_conv_reason:    3
  newton =   3 [  198663] linear =  5678 [ 429410460] cuts =  0 [****]
  --> max chng: dcmx=   8.6454E-04  dc/dt=   2.7415E-12 [mol/s]

 Wall Clock Time:  2.7361E+04 [sec]   4.5602E+02 [min]   7.6003E+00 [hr]
